https://github.com/alex1307/Granule-1.git
https://github.com/vmayoral/beaglebone_pinmux_tables.git
https://github.com/CraneHuang/SchoolMap.git
https://github.com/imcom/tornado-rest-swagger.git
https://github.com/sgjesse/dart-protobuf.git
https://github.com/muralidaranm/pancake-android.git
https://github.com/wesreid/ServiceStack.git
https://github.com/fastconnect/cassandra.git
https://github.com/des-testbed/etxd.git
https://github.com/zhangzhijian2010/adui.git
https://github.com/ethz-asl/vicon_bridge.git
https://github.com/niryariv/open_entity_gis.git
https://github.com/weeai/cobarclient.git
https://github.com/fantasyshopper/li3_queue.git
https://github.com/xtly2012/tomcat70.git
https://github.com/hrigu/regelgui.git
https://github.com/spodym/python-linkedin.git
https://github.com/dabide/CefSharp.git
https://github.com/pinkdoremi/test.git
https://github.com/xpix/XPark.git
https://github.com/konieshadow/vim-colors-solarized.git
https://github.com/palominoz/Vagrant-LEMP.git
https://github.com/rahiktamim/ooptwoprojectsum.git
https://github.com/William-Sang/ddns.git
https://github.com/marble234/LAMMPS.git
https://github.com/ClemensFMN/scipy.git
https://github.com/igorline/Django-tinymce-filebrowser.git
https://github.com/scotmatson/geekwise_homework.git
https://github.com/mufid/SiakStatus2.git
https://github.com/HRMWeb/Symfony-Benchmark.git
https://github.com/caijiehong/webapp.git
https://github.com/RebelPaha/panel.git
https://github.com/yszheda/sim-outorder-extend.git
https://github.com/mdqyy/nnForge.git
https://github.com/doque/uni.git
https://github.com/tinletrong/chat_app.git
https://github.com/vivekrp/groundwork.git
https://github.com/steven-liao/zsummer.git
https://github.com/hananamar/bcrypt-ruby.git
https://github.com/danielegaliffa/facebook-php-sdk.git
https://github.com/liquorvicar/rvm.git
https://github.com/Exxenmann/galaxian-canvas-game.git
https://github.com/AkibaTech/WoN-Engine.git
https://github.com/tomclose/mongo2.git
https://github.com/codec/puppet-osx.git
https://github.com/linxpsoft/dhtcrawler.git
https://github.com/jixieshi999/jsoup.git
https://github.com/linxpsoft/kdht.git
https://github.com/dan98/askengine.git
https://github.com/Travis-Sun/js2-mode.git
https://github.com/easonoutlook/KKGestureLockView.git
https://github.com/kuanjava/node-jslint.git
https://github.com/anaisanais/DiscreteOpt.git
https://github.com/munterberger/scape.git
https://github.com/zzxadi/jquery.git
https://github.com/mwh/webwidget.git
https://github.com/happyDemon/Kohana-Plugin-System.git
https://github.com/kadesai/git.git
https://github.com/harikumarhere/bootstrap.git
https://github.com/tinletrong/backbone-rails-example.git
https://github.com/oaalto/blazed2.git
https://github.com/redhatchallenge/rhc2013.git
https://github.com/wang663632304/android-download-manager-1.git
https://github.com/gitxieming/for_heroku.git
https://github.com/lip61/Responsive-Off-Canvas-Menu.git
https://github.com/soleaf/MintKit.git
https://github.com/craig-beasland/fuelfinder.git
https://github.com/vansention/stackedit.git
https://github.com/adamse/wowhack2.git
https://github.com/T-X/api.freifunk.net.git
https://github.com/TechMantra/package_control_channel.git
https://github.com/ervipin/ToDoApp.git
https://github.com/rAvianCe/owncloud.git
https://github.com/hrickards/react.git
https://github.com/laukwongming/Building-a-Jabber-client-for-iOS.git
https://github.com/Chingliu/LUA-RFC-4122-UUID-Generator.git
https://github.com/testGitSteef/test308tube3.git
https://github.com/alfredzh/graceful-web-ui.git
https://github.com/TYPO3-extensions/vidi.git
https://github.com/fenzlie/perl-File-Tail.git
https://github.com/wang663632304/Mul-Download.git
https://github.com/fixate/design-demo.git
https://github.com/scott0228/TiOpenStreetMap.git
https://github.com/Dr-Terrible/flynn-spec.git
https://github.com/hazanjon/dota2-fantasy-scores.git
https://github.com/bahuafeng/redmine.git
https://github.com/ohdavid/FBDataFatch.git
https://github.com/warpr/n3.git
https://github.com/AlephZero0/TEST.git
https://github.com/abotalov/mail.git
https://github.com/alowdon/macrodef.git
https://github.com/matsimon/unifi-api.git
https://github.com/OrelSokolov/Ember.js---Access-controller-s-property.git
https://github.com/flint87/slideshow.git
https://github.com/gopise/cm-umts-yangtze-device-motorola-omap4-common.git
https://github.com/shawn2424/TrainCarts.git
https://github.com/actionshrimp/chain-of-command.git
https://github.com/rajatpandit/tools-selection.git
https://github.com/orenww/cloud9.git
https://github.com/shankarnannapaneni/madvertise-android-sdk-master.git
https://github.com/bionix/git-deploy.git
https://github.com/binglingyike/android_frameworks_base.git
https://github.com/voshum/itex_blog.git
https://github.com/tambh/rails-deno.git
https://github.com/SoniaFeng/GuildBrowser.git
https://github.com/kelvinlee/giccoo.git
https://github.com/seriema/PartyMode.git
https://github.com/hudku/hudku_c_util.git
https://github.com/cedricmessiant/puppet-preseed_package.git
https://github.com/rajeevkannav/spreewald.git
https://github.com/skyfe79/ffmpeg-ios-compile.git
https://github.com/michalliu/Flocking.git
https://github.com/borowis/alarmscript.git
https://github.com/netdiz/test.git
https://github.com/wnr/jquery-placeholder.git
https://github.com/movsesiv/Incoding-Framework.git
https://github.com/danhigham/heroku-buildpack-mono.git
https://github.com/yusufujss/Tblutc.git
https://github.com/etix/goriakpbc.git
https://github.com/shruthipadma/website.git
https://github.com/xiaojunhan/JavaDemo.git
https://github.com/kaowoat/phonegap-plugins.git
https://github.com/ashayraut/ProblemSolving.git
https://github.com/lazicsasalaki/GPS_android.git
https://github.com/OpenStone/magento_integration.git
https://github.com/netmarkjp/oppai.git
https://github.com/avenger0809/INKONIQ.git
https://github.com/Rajmohanvn/WebServiceDemoComplete.git
https://github.com/diogofriggo/angular.js.git
https://github.com/PeerJ/mpdf-bundle.git
https://github.com/AIM360/libwebp.git
https://github.com/fenzlie/gitOne.git
https://github.com/sioLabs/openbr.git
https://github.com/Cunzhang/Note7days.git
https://github.com/terwey/nps-docs.git
https://github.com/dealsdime/jQuery-webcam.git
https://github.com/ayancruz/git-share.git
https://github.com/abpin/ThinkUp.git
https://github.com/FlorinPop/adjust_ios_sdk.git
https://github.com/marvin89/addictive.git
https://github.com/mirkokiefer/csv2json.git
https://github.com/Michael-Z/kanxuebbs.git
https://github.com/guillaume-sainthillier/web.git
https://github.com/raphaelgrasset/osgAndroidBuildScript.git
https://github.com/xirukitepe/xiruki-tasks.git
https://github.com/Archemedes/BetterBooks.git
https://github.com/helmbold/fitnessedotorg.git
https://github.com/fishrod-interactive/OSX-Leap-Mouse.git
https://github.com/LeeChSien/gaia.git
https://github.com/jongold/aerogel.git
https://github.com/wesreid/xwt.git
https://github.com/Johenius/Euler.git
https://github.com/hostzz/tuiguang.git
https://github.com/jonrangel/docs.git
https://github.com/kamote/chits.git
https://github.com/Piusn/crm.git
https://github.com/gamaC/site01.git
https://github.com/gamaC/site01.git
https://github.com/QuantSeven/framework-generic-demo.git
https://github.com/jhaberstro/declosurify.git
https://github.com/jirkadanek/veterani.git
https://github.com/bortevik/ember-admin.git
https://github.com/bortevik/ember-admin.git
https://github.com/jeffie/django-social-login.git
https://github.com/IcooN/Rebel.git
https://github.com/mfa/pytest_django.git
https://github.com/mfa/pytest_django.git
https://github.com/gunnarmorling/hibernate-metamodelgen.git
https://github.com/gunnarmorling/hibernate-metamodelgen.git
https://github.com/mfjohansson/meteor-autoform.git
https://github.com/ethanliew/android-keyboard.git
https://github.com/IcooN/NSAlert-Popover.git
https://github.com/stoprocent/MPFoldTransition.git
https://github.com/kyrylo/lovely_lambdas.git
https://github.com/nickdotcat/abyteofpython.git
https://github.com/wesreid/sharpen.git
https://github.com/wesreid/sharpen.git
https://github.com/liorsion/Spacers.git
https://github.com/sirithink/camunda-bpm-platform.git
https://github.com/jeduan/lua-log-tools.git
https://github.com/YouMeb/youmeb-cli.git
https://github.com/mmccrumlish234/Puppet_Practice.git
https://github.com/gaoweitom/skynet.git
https://github.com/redcatmiss/KKGestureLockView.git
https://github.com/wondery/cloudstack.git
https://github.com/wondery/cloudstack.git
https://github.com/ethanliew/keyboard_sample_2.git
https://github.com/robertobermejo/hipchat-rb.git
https://github.com/digitalpardoe/i18n_generator.git
https://github.com/bordaigorl/graphwiz.git
https://github.com/krishnakowshik/IntrospectorDemo.git
https://github.com/exedre/Connect.git
https://github.com/likai457661276/PHRETS.git
https://github.com/jdedhia/Cloud-Prize.git
https://github.com/zzlmilk/bankqueueApi.git
https://github.com/idleberg/Kimbie-Mou.git
https://github.com/ksyun/ks3-sdk-python.git
https://github.com/gocallag/knife-oraclevm.git
https://github.com/garykay/Test.git
https://github.com/szelga/desprite.git
https://github.com/thealscott/sassquatch.git
https://github.com/Hapattaja/MvcApplication1.git
https://github.com/taty/openlayers.git
https://github.com/registeraccs/podcast.git
https://github.com/heliogabalo/node.git
https://github.com/surendra7009/articles.git
https://github.com/krzyk240/sites-downloader.git
https://github.com/vjnunez/jquery-emojiarea.git
https://github.com/kimpo0/demo_app.git
https://github.com/dus7/OpenWeatherMapAPI.git
https://github.com/idleberg/Kimbie-Google-Code-Prettify.git
https://github.com/zzzdong/ffmpeg_test.git
https://github.com/ethanliew/Android-KeyboardView-Example.git
https://github.com/Hindi/ShootEmUp.git
https://github.com/wannesvl/topaf.git
https://github.com/BathoryPeter/OsmAnd-resources.git
https://github.com/lidunmin0909/tempo.git
https://github.com/dimanf/rk.git
https://github.com/oaalto/openssl.git
https://github.com/040-Internet/add-image-metabox.git
https://github.com/seanchas116/Qt-TabletSupport.git
https://github.com/doridori/Android-PullToRefresh.git
https://github.com/ksyun/ks3-sdk-php.git
https://github.com/bingyupj/b3log-solo.git
https://github.com/DanielMarklund/FitVids.js.git
https://github.com/htimur/jquery-tokeninput.git
https://github.com/abhishekraw/demo.git
https://github.com/atware/elasticsearch-transport-couchbase.git
https://github.com/hostzz/getBaiduRank.git
https://github.com/mhs-it/MUBoard.git
https://github.com/leecrossley/leecrossley.github.io.git
https://github.com/gopise/cm-umts-yangtze-device-motorola-umts_yangtze.git
https://github.com/sirithink/nutz.git
https://github.com/kalym/bitstarter.git
https://github.com/iziteq/haml.git
https://github.com/krishnakowshik/UDPCHAT.git
https://github.com/zsfdyxf/MailCore.git
https://github.com/piersb/GPGTools_Homepage.git
https://github.com/huanghaisheng/sunrise-alarm.git
https://github.com/chauey/test.git
https://github.com/thatbettina/wishes.git
https://github.com/aventu90/mako.git
https://github.com/crolfe/puppet-vim.git
https://github.com/mobile-web-messaging/www.git
https://github.com/ibuljevic/chute-tutorials.git
https://github.com/karengrigoryan/bootstrap-examples.git
https://github.com/qky1412/TraVo.git
https://github.com/itaylike/highcharts-multi-drilldown.git
https://github.com/mobile-web-messaging/book.git
https://github.com/sudphonegap/myFirstApp.git
https://github.com/MatthieuDebar/Foldarap.git
https://github.com/jiangt/tongxunlv.git
https://github.com/maurojava/myfaces-extcdi.git
https://github.com/MohammadAG/Xposed-MaximizeWidgets.git
https://github.com/vspy/ruby-prof.git
https://github.com/eLBirador/javascript-utilities.git
https://github.com/jasonthompson/fee_estimator.git
https://github.com/TristanXi/QuincyKit.git
https://github.com/stuffmc/aqtoolkit.git
https://github.com/sivakanesh/android.git
https://github.com/Rashmi-Prasad/Repository.git
https://github.com/sanyueyu/backbone-fundamentals.git
https://github.com/luke-chang/Android-PinyinIME.git
https://github.com/oromanos/jQuery-File-Upload.git
https://github.com/kewinwang/gitlab-installer.git
https://github.com/jiuyuehe/ember.js.git
https://github.com/sirithink/URACS.git
https://github.com/saeideh/android-websockets.git
https://github.com/xabaras/android.git
https://github.com/xiaoshitou/spring-integration.git
https://github.com/dwivedi/supertooltips.git
https://github.com/pssaravanan/assets_manager.git
https://github.com/xiow/userChromeJS.git
https://github.com/mohsen-inventor/Blueprint-SlidePushMenus.git
https://github.com/xacinay/automation.git
https://github.com/pmatsinopoulos/test_stub_on_class.git
https://github.com/wokaonimabua/ViewPagerIndicator.git
https://github.com/thehyve/transmart-mydas.git
https://github.com/JasonGit/PushSharp.git
https://github.com/anaisanais/Exercises.git
https://github.com/Marchino/spree_product_zoom.git
https://github.com/edran/reddit-i18n.git
https://github.com/dakishin/AndEngineTexturePackerExtension.git
https://github.com/thangiochoiboi/jx3.git
https://github.com/jwegner/alGuestbookPlugin.git
https://github.com/Squarific/minetest-modding-tutorial.git
https://github.com/Patricy/PHPMailer.git
https://github.com/markomavric/bootstrap-examples.git
https://github.com/zhuyong96/RESTFullYii.git
https://github.com/sdruckerfig/ExtJSLoginAndSecurity.git
https://github.com/Aaronlong31/android-bootstrap.git
https://github.com/jonas8/git.git
https://github.com/chenrongye/rylib.git
https://github.com/kprokin/DarkRP.git
https://github.com/theflow/puppet-nginx.git
https://github.com/abigailo/mnotice.git
https://github.com/import-io/FileSaver.js.git
https://github.com/itthinx/affiliates-custom-method-minimum-rates.git
https://github.com/chenrongye/nginx-1.4.2.git
https://github.com/chenrongye/lighttpd-1.4.32.git
https://github.com/zhuyong96/yiistrap.git
https://github.com/wujunming/work.git
https://github.com/HangfireIO/Hangfire.git
https://github.com/karpome/dayferpool.git
https://github.com/youtopian/youtopianism.git
https://github.com/xch89820/fuelux.git
https://github.com/SlikNL/zf2.git
https://github.com/jlvaquero/git-flow-cheatsheet.git
https://github.com/alex-hsl/TestPerformance.git
https://github.com/Adesh/wordfeed.git
https://github.com/johnjohndoe/www.opentechschool.org.git
https://github.com/idleberg/Kimbie-Xcode.git
https://github.com/jamesrdelaney/AndroidECGGateway.git
https://github.com/jfash/hdi.git
https://github.com/angebouabre/akin_repo.git
https://github.com/giuseppebaldari/Libri.git
https://github.com/vSean/kure.git
https://github.com/elasticio/admineo-api.git
https://github.com/zhaoerx/bpm.git
https://github.com/actionshrimp/roadrunner.git
https://github.com/jamesprite/tiled.git
https://github.com/skjoedt/cbs-python.git
https://github.com/aleksandarz/Crowdhoster.git
https://github.com/nikrou/twigTheme.git
https://github.com/tocinillo78/demo_app.git
https://github.com/devjyotipatra/RecordBreaker.git
https://github.com/bjpangy/Microblog.git
https://github.com/pchaubey89/Priyankaz-Repo.git
https://github.com/chandrakiran145/PushTutorial.git
https://github.com/richddt/CODE.git
https://github.com/redshift13/BeanTweet.git
https://github.com/cryuaries/eddie-vim.git
https://github.com/danielvtan/Selector.js.git
https://github.com/vitaliel/amp.git
https://github.com/lostoy0/google-gson.git
https://github.com/rajibahmed/DunglasTodoMVCBundle.git
https://github.com/jwegner/dmContactPlugin.git
https://github.com/deysong/PocketMine-Realms.git
https://github.com/mugifly/native_client-docs-ja.git
https://github.com/obingo/sails.git
https://github.com/turbo-ele/todoZF2.git
https://github.com/knowledgehacker/rabbitbal.git
https://github.com/kapojko/scm-utils.git
https://github.com/andyrooger/ng-grid.git
https://github.com/bihicheng/PlainOAuth.git
https://github.com/biancab/AMR_help_test.git
https://github.com/Homesoft/Homesofts-Master-Data.git
https://github.com/kinwahlai/AJNotificationView.git
https://github.com/Goundar/testrepo.git
https://github.com/l4cd/host.air.1.x.git
https://github.com/psgs/Cooker.git
https://github.com/fantasyshopper/tmhOAuth.git
https://github.com/GevatterJan/aperte-workflow-plugins.git
https://github.com/jrodalo/jquery-miniColors.git
https://github.com/Djeef/Test-of-Three.js-Library.git
https://github.com/FlaskBreaker/learnxinyminutes-docs.git
https://github.com/NewWife/MemoWrite.git
https://github.com/differentsolutions/Youtube-TV.git
https://github.com/tutor-web/tutorweb.quizdb.git
https://github.com/sharklaser1338/hello-world-flatiron-api.git
https://github.com/sagens42/password-generator.git
https://github.com/nicowollenzin/comments.git
https://github.com/xuwei-k/comonad-extras.git
https://github.com/juRiii/hw3_rottenpotatoes.git
https://github.com/jonigata/rack-fiber_pool.git
https://github.com/qvinti/carcamera.git
https://github.com/phoinixtech/astrid.git
https://github.com/quantax-github/subversion-plugin.git
https://github.com/hzhihu/request-log-analyzer.git
https://github.com/ReddyRavi/PersonalDev.git
https://github.com/SamStonehouse/DiscoBG.git
https://github.com/faridkhan/ExampleHTML5AudioStreaming.git
https://github.com/gunsmith/tageditor.git
https://github.com/miyagawa/pause-visit.git
https://github.com/beby/creepy.git
https://github.com/happynewye/graphchi-cpp.git
https://github.com/saffih/tools.git
https://github.com/xirukitepe/zurb_foundation_test.git
https://github.com/cuittzq/TCPservice.git
https://github.com/krsreenatha/mongoJ.git
https://github.com/fangfang/angular.js.git
https://github.com/jjsantos/catchupa.git
https://github.com/derbyhound/ECSlidingViewController.git
https://github.com/aidydrum/BigProject01.git
https://github.com/HarshitDaftary/Home-For-iOS.git
https://github.com/rkrug/seedDisp.git
https://github.com/sunsetyan/oa.git
https://github.com/dmitriy2689/tic-tac-toe-games.git
https://github.com/youthcode/Core-Data-Persistence.git
https://github.com/kippr/snipmate.vim.git
https://github.com/XenonTranslation/script.git
https://github.com/yuraksisa/springBatch.git
https://github.com/ysb110/hb30mb_ce.git
https://github.com/bopoda/Wappalyzer.git
https://github.com/whostolebenfrog/monger.git
https://github.com/Oxytocin/feathers.git
https://github.com/kipusoep/TextFieldPreviewable.git
https://github.com/writercoder/lpthw-study-projects.git
https://github.com/twocngdagz/bootstrap-colorpicker.git
https://github.com/EPIKUK/YRS2013.git
https://github.com/rkrug/seedProd.git
https://github.com/hateum/encrypted-userprefs.git
https://github.com/okabe-kklab/TinCanJava.git
https://github.com/brain0/Sheaves.git
https://github.com/minggo/cocos2d-html5.git
https://github.com/carldavidturner/Universal-X6-Quote.git
https://github.com/OresomeCraft/MapDevPlugin.git
https://github.com/nerzhul/puppet-dconf.git
https://github.com/imlyj/simple-data.git
https://github.com/geeyor/es.git
https://github.com/oliverganz/IntelliJ-IDEA-Eclipse-on-Mac-Keymap.git
https://github.com/AClickSolution/Info.git
https://github.com/FongRay/patent_app.git
https://github.com/sjdweb/lignite.git
https://github.com/yoren/PHPePub.git
https://github.com/elliots/ninja-limitlessLED.git
https://github.com/espy/hoodie-plugin-tutorial.git
https://github.com/heidi-ann/ocaml-raft.git
https://github.com/darky83/E.F.A.-2.x.x.x.git
https://github.com/obingo/asset-rack.git
https://github.com/iclear/sdns.git
https://github.com/shixin86/kafka.git
https://github.com/thujohn/security-checker.git
https://github.com/welsonla/objective-git.git
https://github.com/kamrenk/donkey-kong-64.git
https://github.com/codeguru85/mobileprovision-read.git
https://github.com/benpickles/lunr.js.git
https://github.com/ppp0/puppet-postfix.git
https://github.com/alessandrod/phonegap-websocket.git
https://github.com/knititwearit/FMF.git
https://github.com/stuz2014/stuz.git
https://github.com/Q-Solutions/DbExtensions.git
https://github.com/ipappous/bitstarter.git
https://github.com/lishensan/fileexplore.git
https://github.com/Homesoft/Homesofts-Core.git
https://github.com/linkedtv/wp1.git
https://github.com/sunbiao0526/python-etsy.git
https://github.com/villadora/jsr.git
https://github.com/aletan/XcodeColors.git
https://github.com/krittamax/Software.git
https://github.com/morozd/teach.github.com.git
https://github.com/ludingping/cocos2d-html5.git
https://github.com/AwwCookies/xchat-plugin-seen.git
https://github.com/suncs/j2ovi.git
https://github.com/hostzz/php-google-pagerank.git
https://github.com/uschen/JSONKit.git
https://github.com/qinxike/bootstrap.git
https://github.com/wwasik/toggleswitch.git
https://github.com/kkosuge/self_inquirer.git
https://github.com/neerajk/Animenu.git
https://github.com/linkedtv/wp2.git
https://github.com/sohgo/serverspec.git
https://github.com/HHuckebein/HorizontalPicker.git
https://github.com/rkrug/fireSim.git
https://github.com/yucc136/PullToRefresh-ListView.git
https://github.com/anthonny/mean.git
https://github.com/pepperrest2/New.git
https://github.com/kylin589/GitHub_ProjectCode.git
https://github.com/zigtang/QiuBo.git
https://github.com/ngdik/fxLib.git
https://github.com/linkedtv/wp3.git
https://github.com/sensors/sale-sforce.git
https://github.com/hahnicity/poaip.git
https://github.com/roberto-arista/typeStats.git
https://github.com/rojanthapa/jquery-validation.git
https://github.com/linkedtv/wp4.git
https://github.com/morozd/Heather.git
https://github.com/cohdee/treebook.git
https://github.com/morozd/SoundRad.git
https://github.com/morozd/rsms.github.com.git
https://github.com/linkedtv/wp5.git
https://github.com/morozd/jekyll.git
https://github.com/jiajie-/android-ColorPickerPreference.git
https://github.com/ghalfacree/Python-Thermal-Printer.git
https://github.com/rkrug/seedGerm.git
https://github.com/linkedtv/wp6.git
https://github.com/vincent1879/GTD.git
https://github.com/YRSNorwich/evilMPs.git
https://github.com/assocoppa123/ActionBarSherlock.git
https://github.com/linkedtv/wp7.git
https://github.com/tavolate/spring-data-orientdb.git
https://github.com/linkedtv/wp8.git
https://github.com/Homesoft/Homesofts-Account.git
https://github.com/SCforAndroid/external-sepolicy.git
https://github.com/irshadpc/superdb.git
https://github.com/AwwCookies/xchat-plugin-remind.git
https://github.com/muratsevim/ros_tutorials.git
https://github.com/artandmath/face.git
https://github.com/chuck-ky/Repo.local.git
https://github.com/sanographix/maki.git
https://github.com/gopise/cm-umts-yangtze-vendor-motorola.git
https://github.com/robertobn/cors-filter.git
https://github.com/CGeng/asdasd.git
https://github.com/neilsf/test.git
https://github.com/p8952/vim-colors-wombat.git
https://github.com/mateEgyed/javamaster.git
https://github.com/ShadyGhalab/JotDigitalInk.git
https://github.com/rkrug/prioritization.git
https://github.com/virtalab/geolib.git
https://github.com/abicash/mcuoneclipse.git
https://github.com/ashmckenzie/rails4-walkthrough-august-2013.git
https://github.com/morozd/blk-game.git
https://github.com/dume2007/ruby-study.git
https://github.com/kamrenk/donkey-kong-64-to-much-lag.git
https://github.com/naysumyat/Nestable.git
https://github.com/saks/unicorn-ng.git
https://github.com/an-angry-elder/Ulysses.git
https://github.com/Homesoft/Homesofts-Nuget.git
https://github.com/qinxike/spring-data-jpa.git
https://github.com/Ginox/MvvmCross-Binaries.git
https://github.com/7upgo/the-way-to-go_ZH_CN.git
https://github.com/wangxing1223/Day13.git
https://github.com/zoozooll/blue-reader.git
https://github.com/DorVa/Xenologer.git
https://github.com/FuturesJS/ArrayAsync.git
https://github.com/harishmano/popcorn.webmaker.org.git
https://github.com/bitsoftly/bitsoftly.github.io.git
https://github.com/maurojava/modern-ee-app20.git
https://github.com/51anygo/findme.git
https://github.com/jgabrielygalan/verbal_expressions.git
https://github.com/montefra/numpy.git
https://github.com/verysuccess/fulshop.git
https://github.com/GAFFAjakob/debug_kit.git
https://github.com/ggggamer/tiled.git
https://github.com/Kubuxu/Glydar-1.git
https://github.com/carousel/superTextAreajQuery.git
https://github.com/babejsza/phonegap-plugins.git
https://github.com/ababenko/angular.js.git
https://github.com/tonimichel/ape.git
https://github.com/ggggamer/bootstrap.git
https://github.com/kabirsoft/projects.git
https://github.com/lmmontesinos/android-google-maps-demo.git
https://github.com/ketaki-webonise/lightbox2.git
https://github.com/jokermt235/couchbase-java-client.git
https://github.com/morozd/orbium.git
https://github.com/zeutrap/leveldb.git
https://github.com/yaroslavprogrammer/django-htmlmin.git
https://github.com/tungdt/platform.git
https://github.com/ralyrs/myproj.git
https://github.com/dirtyvader/generator-angular.git
https://github.com/coolbombom/headphones.git
https://github.com/Ta4i/d3.git
https://github.com/aymericbeaumet/IndexedSearch.vim.git
https://github.com/sdjayna/LDAPGroups.git
https://github.com/marinesky/ViewDeck.git
https://github.com/tobyink/p5-types-readonly.git
https://github.com/stefanosala/SyliusSalesBundle.git
https://github.com/anshaoyuan/rails4.git
https://github.com/cloudsoft/brooklyn-ravello.git
https://github.com/DeWenS/js-tasks.git
https://github.com/AndrewBelt/minesweeper.git
https://github.com/caitao/ilocal.git
https://github.com/hackolite/PRION.git
https://github.com/varundvs/MumbaiRentals.git
https://github.com/Ginox/MvvmCross.git
https://github.com/kostya4000/buildroot-linux-kernel-m6.git
https://github.com/cebe/yiimap.com.git
https://github.com/RockyHuang/BookBlock.git
https://github.com/zsfdyxf/Hello.git
https://github.com/attacker1983/cap_resources.git
https://github.com/SamanSystems/WebGate-ZarinJoomina.git
https://github.com/morozd/HexGL.git
https://github.com/hanoibanhcuon/html5-audio-read-along.git
https://github.com/johnhezheng/SalesforceMetadata.git
https://github.com/liziqiang/startHtml5.git
https://github.com/shpizel/php-zookeeper.git
https://github.com/croypaul/Spoon-Knife.git
https://github.com/sheabunge/functionality.git
https://github.com/glebone/MacRuby.git
https://github.com/danielt69/sublime_package_control.git
https://github.com/Ginox/MvvmCross-Tutorials.git
https://github.com/arvindmehra/Fbooking.git
https://github.com/MaximeMorille/fitText.git
https://github.com/anandu/pyechonest.git
https://github.com/vbruzeau/first_git_project.git
https://github.com/stleon/pic-on-pic.git
https://github.com/viccici/backup.git
https://github.com/PUGX/godfather.git
https://github.com/chaseli/appjs.git
https://github.com/okoala/loris.git
https://github.com/ndeloof/selenium-plugin.git
https://github.com/tuanjie54188/jtopo.git
https://github.com/deslum/test.git
https://github.com/guillaume-sainthillier/bad-tournament.git
https://github.com/bronze1man/composer.git
https://github.com/andreeasandu/git-presentation.git
https://github.com/tgautier/dependency_injection-ruby.git
https://github.com/srik1040/collective.gallery.git
https://github.com/inki-nrm/RemoteJee6BeanExample.git
https://github.com/coder1010/FirstGod.git
https://github.com/songhongwang/MyAnim.git
https://github.com/sabaking/jquery-cookie.git
https://github.com/DirkHaehnel/CSDISM.git
https://github.com/mkumar4ever/Jquery-Photo-Tag.git
https://github.com/vikas480/dx.git
https://github.com/teamgeo/GeoExplorer.git
https://github.com/emanuele-piantoni/OData.git
https://github.com/niieani/munin-php-fpm.git
https://github.com/nut-abctech/meetv-vagrant-box.git
https://github.com/arabulf/git_test.git
https://github.com/xuecai/mongo-php-driver.git
https://github.com/attacker1983/test.git
https://github.com/hanoibanhcuon/json-xml-rpc.git
https://github.com/saagarsm/Protech.git
https://github.com/Malachiasz/HorizontalVariableListView.git
https://github.com/sirithink/es.git
https://github.com/pellaeon/webpg-firefox.git
https://github.com/anchorus/anchor-cms.git
https://github.com/anandvofox/AFSample.git
https://github.com/ceo1647/TestRepo.git
https://github.com/davidcollom/sage_pay_rails_example.git
https://github.com/jwormcbc/r3s3rv1st4.git
https://github.com/hanoibanhcuon/jquery-css-transitions.git
https://github.com/Guigoz/bobo.git
https://github.com/AwwCookies/xchat-plugin-spotify.git
https://github.com/ilmsg/php-google-pagerank.git
https://github.com/panallen/HTML5-Canvas-Brush-Sketch.git
https://github.com/lewismclennan/phonegap-plugins.git
https://github.com/labudis/bootstrap-daterangepicker.git
https://github.com/mynameisi/_practice_JavaEE_HelloWorld_NotFixed.git
https://github.com/qwerscom/Tumblr-HTML5-Blank-Theme.git
https://github.com/jzuijlek/cfml-vim.git
https://github.com/venam/pam_captcha_patch.git
https://github.com/ruoshuigao/kanban.git
https://github.com/Soraph/inquisition.git
https://github.com/Hajimoto/ASM.git
https://github.com/jackplug/audiojs.git
https://github.com/npmyj/OpenIAB.git
https://github.com/AASanchezA/FaceSubstitution.git
https://github.com/Lightstreamer/Lightstreamer-example-RoundTrip-adapter-java.git
https://github.com/Djuki/Wordpress-Vagrant-Box.git
https://github.com/gracer-lyl/webenergy.github.com.git
https://github.com/takaki8/swfobject.git
https://github.com/jessec/interactive-decision-tree.git
https://github.com/poperon/broches-tocados.git
https://github.com/kdisneur/objective-c-style-guide.git
https://github.com/PabloOtero/uptodate_rivers.git
https://github.com/ISNIT0/YRSo2.git
https://github.com/ChoLong/TotalCallServer.git
https://github.com/tmaximini/express-library.git
https://github.com/antapos/Telescope.git
https://github.com/cogitatio/grunticon.git
https://github.com/nickithewatt/spring-data-commons.git
https://github.com/kada-yiyuanshan/Test.git
https://github.com/vpart21/pac.git
https://github.com/einyx/PiNopticon.git
https://github.com/relekang/reconnecting-websocket.git
https://github.com/antaryaami/erpnext.git
https://github.com/carnicus/Gallery.git
https://github.com/bhs25/GitHub.git
https://github.com/xukey/appweb-4.git
https://github.com/LeonJT/libcurl-build.git
https://github.com/LeonJT/libcurl-build.git
https://github.com/mayureshco1/mayureshco1.github.io.git
https://github.com/ilmsg/bootstrap-markdown.git
https://github.com/ilmsg/bootstrap-markdown.git
https://github.com/AwwCookies/PyEdit.git
https://github.com/cr8ivecodesmith/play.git
https://github.com/cr8ivecodesmith/play.git
https://github.com/vpart21/samsung-kernel-msm7x30.git
https://github.com/vpart21/samsung-kernel-msm7x30.git
https://github.com/binocarlos/spade.git
https://github.com/yuyu1911/KKGestureLockView.git
https://github.com/raksit/phonegap-start.git
https://github.com/tracymiranda/ballin-robot.git
https://github.com/morozd/html5-space-fighter.git
https://github.com/morozd/html5-space-fighter.git
https://github.com/ashic/Tidbits.git
https://github.com/vlradovanovic/Blog.git
https://github.com/vlradovanovic/Blog.git
https://github.com/quert/gr-drm.git
https://github.com/mirkokiefer/node-csv.git
https://github.com/mirkokiefer/node-csv.git
https://github.com/aneeqa/showmethefunding.git
https://github.com/cisbeo/iledocs.git
https://github.com/cisbeo/iledocs.git
https://github.com/lekastillo/rails-i18n.git
https://github.com/techjacker/q.git
https://github.com/figgycity50/srursp.git
https://github.com/figgycity50/srursp.git
https://github.com/mrflay/FLAY_FireGeom.git
https://github.com/mrflay/FLAY_FireGeom.git
https://github.com/JustWe/justwe.github.com.git
https://github.com/JustWe/justwe.github.com.git
https://github.com/ubsan/sled.git
https://github.com/ubsan/sled.git
https://github.com/yxdh4620/node-polar-xlsx.git
https://github.com/rubyfox/eazyphoto-web.git
https://github.com/JakeFalcor/zf2-documentation.git
https://github.com/fabiopellati/Doops.git
https://github.com/FuzzieViking/boredGames.git
https://github.com/dizhu/Puerh.git
https://github.com/dizhu/Puerh.git
https://github.com/lms42/GlorpenPropelBundle.git
https://github.com/lms42/GlorpenPropelBundle.git
https://github.com/rubyfox/eazyphotod.git
https://github.com/rubyfox/eazyphotod.git
https://github.com/MonicaTu/vimrc.git
https://github.com/onomotoharu/works.git
https://github.com/morozd/agent8ball.git
https://github.com/rShetty/Notes.git
https://github.com/fabiosegalla/iban-tools.git
https://github.com/marinesky/nimbus.git
https://github.com/marinesky/nimbus.git
https://github.com/githubber/punch.git
https://github.com/tellramesh2000/Ramesh.git
https://github.com/niieani/munin-php-fpm-status.git
https://github.com/niieani/munin-php-fpm-status.git
https://github.com/OrelSokolov/Ember.js-MyLinkedIn-0.1.git
https://github.com/ImmyR/wheresmyfunding.git
https://github.com/ImmyR/wheresmyfunding.git
https://github.com/tracymiranda/YRSo2.git
https://github.com/tracymiranda/YRSo2.git
https://github.com/slajax/component-middleware.git
https://github.com/Yunrui/traffic-reduce.git
https://github.com/Yunrui/traffic-reduce.git
https://github.com/morozd/thinkqr.git
https://github.com/jessec/jsonform.git
https://github.com/grunken/Xine.git
https://github.com/simonbs/alfred-lyricsfinder-workflow.git
https://github.com/simonbs/alfred-lyricsfinder-workflow.git
https://github.com/tminlim/next-chessgame.git
https://github.com/miguelfua/test.github.io.git
https://github.com/miguelfua/test.github.io.git
https://github.com/leopro/godfather.git
https://github.com/leopro/godfather.git
https://github.com/adjust/pg-numhstore.git
https://github.com/jbklikh/test-1.git
https://github.com/jbklikh/test-1.git
https://github.com/DroidBoyJr/tuxtransfer.git
https://github.com/DroidBoyJr/tuxtransfer.git
https://github.com/walkinghorse/ActionBarSherlock.git
https://github.com/walkinghorse/ActionBarSherlock.git
https://github.com/angelovdeodd/firesquare.git
https://github.com/gunner0418/CocosBuilder.git
https://github.com/morozd/PunkIsDead.git
https://github.com/morozd/PunkIsDead.git
https://github.com/0MasteR0/xbmc.git
https://github.com/0MasteR0/xbmc.git
https://github.com/theminotaur/Where_Can_I_Find.git
https://github.com/MarkusY/execjs.git
https://github.com/kurtmc/cv.git
https://github.com/kurtmc/cv.git
https://github.com/freddiewang/freddiewang.git
https://github.com/panallen/sketchyPad.git
https://github.com/panallen/sketchyPad.git
https://github.com/anchorus/anchor-site.git
https://github.com/anchorus/anchor-site.git
https://github.com/spharin/hw3_rottenpotatoes.git
https://github.com/spharin/hw3_rottenpotatoes.git
https://github.com/aovditc/el-deko.git
https://github.com/ionan/jquery_jeditable.git
https://github.com/ionan/jquery_jeditable.git
https://github.com/ml-bright/android-pulltorefresh.git
https://github.com/hollandben/grunt-cache-bust.git
https://github.com/pmxiaojian/salt.git
https://github.com/huanhuan1989/ajax.git
https://github.com/huanhuan1989/ajax.git
https://github.com/vittorino/Chart.js.git
https://github.com/Narayan-nr84/Repository1.git
https://github.com/geetashinde/modern_interior.git
https://github.com/geetashinde/modern_interior.git
https://github.com/jamjr/AndEngine.git
https://github.com/jamjr/AndEngine.git
https://github.com/vak/MATLAB.git
https://github.com/faja/cookbook-nodejs.git
https://github.com/nickdella/metrics-librato.git
https://github.com/nickdella/metrics-librato.git
https://github.com/bingyang001/disruptor.git
https://github.com/nedien/YoutubeToBackground.git
https://github.com/rja1986/testGit.git
https://github.com/ImmyR/lalala.git
https://github.com/JacekLach/git-archive-branch.git
https://github.com/scions/scions.git
https://github.com/morozd/NodeGame-Shooter.git
https://github.com/morozd/NodeGame-Shooter.git
https://github.com/swmoon203/gfxCardStatus.git
https://github.com/swmoon203/gfxCardStatus.git
https://github.com/fengabe/NServiceBus.git
https://github.com/fengabe/NServiceBus.git
https://github.com/arpanlepcha/mechanize-js.git
https://github.com/arpanlepcha/mechanize-js.git
https://github.com/wuya136/vim-plugin-wuya136.git
https://github.com/wuya136/vim-plugin-wuya136.git
https://github.com/morozd/mariohtml5.git
https://github.com/morozd/mariohtml5.git
https://github.com/sysred7/curso-android-src.git
https://github.com/vemv/textmate-theme.git
https://github.com/vemv/textmate-theme.git
https://github.com/plops/led-strip.git
https://github.com/beebeeep/erlang-misc.git
https://github.com/Beetuyadav/FTUIKit.git
https://github.com/hufeng825/blog.git
https://github.com/arnellebalane/tictactoe.git
https://github.com/arnellebalane/tictactoe.git
https://github.com/kennisnet/edurep-toolkit.git
https://github.com/AnoopBora/tess-two.git
https://github.com/Darkspawn/BigfootSeoBundle.git
https://github.com/pkimber/base.git
https://github.com/prannamalai/oauthd.git
https://github.com/briandooley/db-connections.git
https://github.com/almonacilo/sabi-santiago2103.git
https://github.com/Alfalfamale/BetterF3.git
https://github.com/kholoodAlsaggaf/MySchool.git
https://github.com/morozd/javascript-snakes.git
https://github.com/hackose/airbop-client.git
https://github.com/alt332/VerbalExpressions.git
https://github.com/minlare/angular-app.git
https://github.com/redshift13/NoteSolo.git
https://github.com/morozd/8biticon.git
https://github.com/mraad/AvroToolbox.git
https://github.com/lestrrat/Minilla.git
https://github.com/ralyrs/ProcessPV.git
https://github.com/zz7zz7zz/android-push.git
https://github.com/arnellebalane/snake.git
https://github.com/Sandbird/BaseBuilding-DayZ.git
https://github.com/kl4us/django-bootstrap-registration-faq.git
https://github.com/guillaume-sainthillier/DNC.git
https://github.com/frozenskys/SharpDevelop.git
https://github.com/wapeyang/petebuy.git
https://github.com/alitaso345/katagaiiriguchi.git
https://github.com/vurt007/vurt007.github.io.git
https://github.com/ivartj/base64.git
https://github.com/raydeslee/book-node-mongodb-backbone.git
https://github.com/andrepires/prebuilt-apps.git
https://github.com/haruyama/ex_online_perceptron.git
https://github.com/robingl/noflo-csv.git
https://github.com/sswater/drupal.git
https://github.com/rja1986/testGitUnity.git
https://github.com/shib71/rexus.git
https://github.com/morozd/runfield.git
https://github.com/liuggio/aop.git
https://github.com/felixhirschfeld/felixhirschfeld.github.com.git
https://github.com/lms42/propel-ownerable.git
https://github.com/ADDYADAM/isd-voip.git
https://github.com/m4jing/matplotlib.git
https://github.com/AfterLifeLochie/luahttpd.git
https://github.com/hwwang/phantomjs.git
https://github.com/Ecodev/dataquery.git
https://github.com/jovanialferez/bootstrap.git
https://github.com/asebas/storm.git
https://github.com/nitin-sharma13/crm-vt6.git
https://github.com/regedarek/verbal_expressions.git
https://github.com/pv100/inf-mongo.git
https://github.com/Softackle/Swam.git
https://github.com/jakob-stoeck/yii2.git
https://github.com/nikunj165/jOOQ.git
https://github.com/aruss/WireCardNet.git
https://github.com/BryanOne/MMDrawerController.git
https://github.com/42cc/django-haystack.git
https://github.com/jacobwalkr/caerus-web.git
https://github.com/sj810/datavyu.git
https://github.com/opsunit/opsunit.github.io.git
https://github.com/unc0/crel.git
https://github.com/jacobbalta/foundation.git
https://github.com/matrosovDev/ArrangeLabels.git
https://github.com/misza222/google-ajax-crawler.git
https://github.com/morozd/DOOM-3-BFG.git
https://github.com/FrontenderMagazine/request-animation-frame-for-better-performance.git
https://github.com/prathapjayaraj/spring-webflow-samples.git
https://github.com/xepps/TinyBot.git
https://github.com/tianqizi/AURosetteView.git
https://github.com/wanoii/CadetEngine-as.git
https://github.com/enishitech/seisan.git
https://github.com/Pancho7/iFlowRoot.git
https://github.com/JoshuaJWilborn/reddit_responder.git
https://github.com/anaelbe/uikit.git
https://github.com/ytrjp/KKGestureLockView.git
https://github.com/web-concept/web-concept.github.com.git
https://github.com/fragtalg/OpenSesame.git
https://github.com/yahuflash/PhysInjector.git
https://github.com/lesh-dev/lesh-contrib.git
https://github.com/rishabhmhjn/node-memcached.git
https://github.com/ilmsg/nodeigniter.git
https://github.com/ytrjp/PHTableView.git
https://github.com/flemay/bowling-js.git
https://github.com/jeduan/corona-cacharro.git
https://github.com/123123123123123123123123/EGOTableViewPullRefresh.git
https://github.com/dlete/cacti_templates.git
https://github.com/harishkondu/d3.git
https://github.com/robertqin/facebook-ios-sdk.git
https://github.com/QaisAlkurdi/Stupid-Table-Plugin.git
https://github.com/AndreasMadsen/node-mariasql.git
https://github.com/tanvn/neo4j.git
https://github.com/Incrediblefuelp/Container.git
https://github.com/jvkersch/scipy.git
https://github.com/fenderstr/smoothie.git
https://github.com/marcomarchiaro/PG-SQLitePlugin-Android.git
https://github.com/codrops/CreativeLinkEffects.git
https://github.com/svitaliyv/Modernizr.git
https://github.com/Yw0ke/Magnific-Popup.git
https://github.com/absoluteboy/jquery-ui-touch-punch.git
https://github.com/ddobrev81/OOPHPlearnsite.git
https://github.com/jamescrowley/BuildDeploySupport.git
https://github.com/Al153/Where_Can_I_Find.git
https://github.com/netcanis/cocos2dx-store.git
https://github.com/anaelbe/ios7-wireframe-kit.git
https://github.com/ilmsg/node-ftp.git
https://github.com/zhwj184/springInvokemonitor.git
https://github.com/openalmeida/dezend.git
https://github.com/liu2604592/OverScrollView.git
https://github.com/killabeezz/video_report.git
https://github.com/kanekomasanori/first_app.git
https://github.com/fabgithub/QLColorCode.git
https://github.com/fatihyakut/ActionBarSherlock.git
https://github.com/ftp27/jBehave_HelloWorld.git
https://github.com/virtalab/android-commons.git
https://github.com/Ihon/railssample.git
https://github.com/morozd/RacerJS.git
https://github.com/benjie/phonegap-plugins.git
https://github.com/ericntd/bluetoothtest.git
https://github.com/Sjstowik1998/treebook.git
https://github.com/Ecodev/tagpackprovider.git
https://github.com/anakinit/yii-web.git
https://github.com/eossipov/Codiad.git
https://github.com/manindersinghchahal/jquery-box-slider.git
https://github.com/michael-bleier/ssl-logtools.git
https://github.com/shajadi/metasploit-framework.git
https://github.com/kurtisebear/PDFCracker.git
https://github.com/satanrabbit/srgraphics.git
https://github.com/Dit81/scala_school.git
https://github.com/TradeHero/StyleCop.git
https://github.com/anaelbe/CSS-Guidelines.git
https://github.com/ohaal/cast-android-sample.git
https://github.com/liushuangxi/work.git
https://github.com/demsullivan/SlickGantt.git
https://github.com/kony/Browser.git
https://github.com/ikedayk/KR.git
https://github.com/Leeibrah/plitzr.git
https://github.com/nathanlon/KnpMenu.git
https://github.com/nonstriater/LockScreen.git
https://github.com/theNimja/YRS2013ABERDEEN.git
https://github.com/inspiredjw/zooqoos.com.git
https://github.com/dondeng/plutus.git
https://github.com/syuemingfang/syuemingfang-comment.git
https://github.com/MJmT/test3.git
https://github.com/panallen/wordcloud.git
https://github.com/Dit81/scala_school2.git
https://github.com/msatish891/New.git
https://github.com/anosikeosifo/QuartzNetTutorial.git
https://github.com/KristianOellegaard/puppet-postgresql.git
https://github.com/pingwinator/objective-c-conventions.git
https://github.com/rey-and/install-to-project-repo.git
https://github.com/idleberg/Kimbie-highlight.js.git
https://github.com/garpert/ofxMSAInteractiveObject.git
https://github.com/allegewhd/sji_geeks_slide.git
https://github.com/realworldocaml/scripts.git
https://github.com/syuemingfang/insertjs.git
https://github.com/jessec/jQuery-Dependent-Fields.git
https://github.com/morozd/html5-bomberman.git
https://github.com/ktat/p5-oidc-lite.git
https://github.com/charlycoste/jquery-help-layer.git
https://github.com/avontd2868/diaspora.git
https://github.com/Mhacom/first_app.git
https://github.com/distributedantipatterns/repository.git
https://github.com/idulis/euroaplicaciones.git
https://github.com/morozd/BrowserQuest.git
https://github.com/avontd2868/diaspora-android.git
https://github.com/hudvin/reverb-servlet.git
https://github.com/applideveloper/SocketShogi.git
https://github.com/bhesmans/netkit-uml-filesystem.git
https://github.com/shail2/rails3-jquery-autocomplete.git
https://github.com/kenichi-okazaki/test.git
https://github.com/jeff-pang/AppDomainSample.git
https://github.com/avontd2868/diaspora_public_site.git
https://github.com/rmb-om/rosjava_core.git
https://github.com/sendanor/redirect-https-server.git
https://github.com/ivgk26/moai-dev.git
https://github.com/Abdel1dz/e2openplugin-OpenWebif.git
https://github.com/593141477/cedarv-h264-encoder.git
https://github.com/ngocdu/GameFish.git
https://github.com/vivekgidmare/windowAnimationSample.git
https://github.com/syuemingfang/grid100.git
https://github.com/rmb-om/android_core.git
https://github.com/kmeze/Rhetos.git
https://github.com/agrawalravi95/OOPSlab.git
https://github.com/pparth/Turbine.git
https://github.com/prachi3oct/TED-Android-App.git
https://github.com/pilu/musicbrainz_cli.git
https://github.com/rudnik20/django-ctt.git
https://github.com/kabirsoft/testFolder.git
https://github.com/xjzhou/cvxopt.git
https://github.com/BryanOne/BWSwitch.git
https://github.com/lxde/lxqt-about.git
https://github.com/dopefishh/dwifi.git
https://github.com/byonabz/android_packages_apps_Calculator.git
https://github.com/mplatts/dotfiles.git
https://github.com/sandeepitha/Vim.git
https://github.com/lafar6502/rhino-licensing.git
https://github.com/carlomr/pacs.git
https://github.com/basbz/dropzone.git
https://github.com/kennychua/pdiffy.git
https://github.com/jarvisaoieong/grunt-read-components.git
https://github.com/lxde/lxqt-config.git
https://github.com/anfebotero/off-screen-navs.git
https://github.com/danwi/testng.git
https://github.com/supercrawler/Android-PullToRefresh-VerticalViewPager.git
https://github.com/bytesnake/node-photoblog.git
https://github.com/lxde/lxqt-globalkeys.git
https://github.com/sunzhigang/qomo-utils.git
https://github.com/andrew703/Swiper.git
https://github.com/surendra006/Java-projects.git
https://github.com/Magnat12/ViewDeck.git
https://github.com/lxde/lxqt-notificationd.git
https://github.com/garpert/ofxSimpleGuiToo.git
https://github.com/lxde/lxqt-openssh-askpass.git
https://github.com/BibekGautam/ClientSideAddDeleteRowGridview.git
https://github.com/girikudlur/normalize.css.git
https://github.com/yeonki-choi/nagios.git
https://github.com/jCobbSK/leapmotion-CustomCursorControl.git
https://github.com/lxde/lxqt-policykit.git
https://github.com/devthakur/LostAndFound.git
https://github.com/cerokuo/cerokuoRepo.git
https://github.com/venuwale/phonegap.git
https://github.com/atipugin/devise_lastseenable.git
https://github.com/claudiagrilli/ios-SDNestedTable.git
https://github.com/hardevine/wardrobe.git
https://github.com/lxde/lxqt-runner.git
https://github.com/jgralak/lizardfs.git
https://github.com/lxde/lxqt-panel.git
https://github.com/pkimber/login.git
https://github.com/mohyt/vba.git
https://github.com/wejio/Mobile-Detect.git
https://github.com/jeduan/corona-analytics-mixpanel.git
https://github.com/BobPyron/FoxeeScript.git
https://github.com/caiobzen/iOS-ImageManager.git
https://github.com/vberset/ganja.git
https://github.com/ancrod/turbo-octo.git
https://github.com/pjdelport/django-import-export.git
https://github.com/Tuxuri/osmbuildings.git
https://github.com/Ranjith1991/phonegap-plugins.git
https://github.com/boogie/2013.cascadiajs.com.git
https://github.com/YzhilongY/APDPlat.git
https://github.com/soyoes/liberobjc.git
https://github.com/anfebotero/wraith.git
https://github.com/steveLangton/game-of-life.git
https://github.com/callmeyan/ycms.git
https://github.com/aboutstudy/scel2mmseg.git
https://github.com/theodi/odlifier.git
https://github.com/Gres/Faker.js.git
https://github.com/yang6233562/bsie.git
https://github.com/garpert/ofxXmlSettings.git
https://github.com/encorehu/django-buddy.git
https://github.com/BobPyron/VerbalExpressions.git
https://github.com/kevinpapst/portfolio-generator.git
https://github.com/liujiuwu/slick-examples.git
https://github.com/idleberg/Kimbie-CodeMirror.git
https://github.com/Hiroyuki-Nagata/2chViewerCGI.git
https://github.com/nalobin/indices_master.git
https://github.com/arnab/elastic_searchable.git
https://github.com/boogie/Spoon-Knife.git
https://github.com/BdanB/dragndrop.git
https://github.com/we4sz/TreeRemote.git
https://github.com/topwebmaster/MH.git
https://github.com/anaelbe/pure.git
https://github.com/puzankov/csscomb.js.git
https://github.com/dnddar/php-sdk.git
https://github.com/Lujaw/async.git
https://github.com/patte/emblem-rails-demo.git
https://github.com/alexzulu/SZOBase.git
https://github.com/dirktrossen/cardsui-for-android.git
https://github.com/meshuits/sample_app_2.git
https://github.com/bill-auger/bill-auger.github.io.git
https://github.com/VinayBHiraskar/ember.js.git
https://github.com/emeadows/scala-drools-dummy-project.git
https://github.com/socketwiz/node-optipng-bin.git
https://github.com/fvmt/py2_mrim.git
https://github.com/garry9590/ProblemSolving.git
https://github.com/chunyintang/isotope-perfectmasonry.git
https://github.com/devilcoders/putsmail.git
https://github.com/sigrand/OpenNVR.git
https://github.com/unclegiraffe/mailcore2.git
https://github.com/t4deu/GeekSerendipity-io13.git
https://github.com/topwebmaster/MONSTERHIGH--MONSTERHIGH--MONSTERHIGH--MONSTERHIGH--MonHi.git
https://github.com/nrooney/nfcapp.git
https://github.com/setimets/sculptgl.git
https://github.com/ageldama/jhyun-jsptags.git
https://github.com/acjwht/kft-activiti-demo.git
https://github.com/rapidwein/snakeGame.git
https://github.com/vidyasagarmundhe/fof.git
https://github.com/finnbar/SafeRoute.git
https://github.com/Yoast/comment-redirect.git
https://github.com/semantik/sentiment_analysis.git
https://github.com/KimSchultz/CSharpVerbalExpressions.git
https://github.com/mehulgecg/ButtonPeoplePicker.git
https://github.com/jward3/CountryCode.git
https://github.com/zaremjan/sly.git
https://github.com/takuan-osho/ansible-tuto.git
https://github.com/phucdanghuu/travis-ci-example.git
https://github.com/liyamahendra/FFmpeg-Android-1.git
https://github.com/sigrand/OpenONVIF.git
https://github.com/RinseIO/couchdbkit.git
https://github.com/jarvisaoieong/kinua.github.com.git
https://github.com/alfonso-garcia/startup-engineering-setup.git
https://github.com/nicholassciama/BirdSpot.git
https://github.com/raonyguimaraes/flask.git
https://github.com/danielvtan/EventDispatcher.js.git
https://github.com/kam2001/contractors.git
https://github.com/parkr/spiegel.git
https://github.com/kyoungchinseo/next-chessgame.git
https://github.com/alemoi/PMail.git
https://github.com/hackfleisch/patdex.git
https://github.com/b2l/fs-browserify.git
https://github.com/buszito/chrome-app-samples.git
https://github.com/VinayBHiraskar/website.git
https://github.com/VasyaStankova/xaml-sdk.git
https://github.com/SmartInvention/Dingcan_UI.git
https://github.com/willduarte/sublime-groups-enhancements.git
https://github.com/tfheen/libvmod-geoip.git
https://github.com/onealtang/BlueForest.git
https://github.com/christiandt/reveal.js.git
https://github.com/CarlosAndreDLima/SistemaJuridico.git
https://github.com/mdatoo/website.git
https://github.com/dkentw/pi-tester.git
https://github.com/MahalingamContus/jquery.ui-tokenlist.git
https://github.com/hsenot/floorplan.git
https://github.com/GreatPotato/ls-module-orderspilt.git
https://github.com/hzrandd/keystone.git
https://github.com/satanrabbit/tip.git
https://github.com/ainulindalelu/hiphop-php.git
https://github.com/faraway01/Simple-ConnectDB.git
https://github.com/AppCakeLtd/Barrel.API.git
https://github.com/arjan/angular-strap.git
https://github.com/GreatReader/tabfragment.git
https://github.com/vstarshinin/test.git
https://github.com/shengxiang205/alipay.git
https://github.com/szgabsz91/html-components-app.git
https://github.com/alfonso-garcia/startup-engineering-dotfiles.git
https://github.com/Samuel29/picnet_closure_repo.git
https://github.com/jjcoellov/tuenti-php-sdk.git
https://github.com/ripdajacker/commons-betwixt.git
https://github.com/vstarshinin/dmonakhov.git
https://github.com/ztchen89/metaq.git
https://github.com/Lehasam/LehasaRepo.git
https://github.com/diouf/knockout.mapping.git
https://github.com/toosha01/CodeIgniter.git
https://github.com/francisneedham/spree_contact_us.git
https://github.com/kennethnyc/repo.git
https://github.com/ScottSavarie/julian-site.git
https://github.com/nbasic/tralala.git
https://github.com/silverjerk/KudosPlease.git
https://github.com/alewars/cloudstack_ruby_client.git
https://github.com/fabgithub/highlight.js.git
https://github.com/mattn/zencoding-vim.git
https://github.com/vSean/TopKure.git
https://github.com/micafer/jquery.avgrund.js.git
https://github.com/jason-zou/build-web-application-with-golang.git
https://github.com/kirs/dotfiles.git
https://github.com/rushn/php_shell.git
https://github.com/bronze1man/guzzle.git
https://github.com/mkcomco/mkcomco.github.io.git
https://github.com/jporta/ormdroid.git
https://github.com/hengchao/WordPress-iOS.git
https://github.com/kristianlm/friend.git
https://github.com/justinjoy/gtkmm-utils.git
https://github.com/realworldocaml/opam-repo-dev.git
https://github.com/jjonker/test.git
https://github.com/pulser/android_external_bluetooth_bluedroid.git
https://github.com/silverjerk/kudos.git
https://github.com/alpaca-tc/alapca-tc.github.com.git
https://github.com/jgouda/JavaChef.git
https://github.com/nattsp/My_CV.git
https://github.com/ijy/cssutils.git
https://github.com/downrightmike/rbenv.git
https://github.com/nialldonnellyfh/Basic-App.git
https://github.com/membrown/FirstTest.git
https://github.com/shadowfax/ZFInvoices.git
https://github.com/almost/vzaar.git
https://github.com/rickary/sass-mixin-library.git
https://github.com/ba55ie/Front-end-Developer-Interview-Questions.git
https://github.com/jmiziolek/wp-capsule.git
https://github.com/daerduoCarey/Homeworks.git
https://github.com/b13/t3ext-tagsforpages.git
https://github.com/kfigiela/newrelic-grape.git
https://github.com/parivartan-nit/parivartan-nit.github.io.git
https://github.com/Blahah/d3-bootstrap-plugins.git
https://github.com/iYUYUE/AH_Wearable_Controller.git
https://github.com/qinxike/spring-data-jpa-examples.git
https://github.com/pulser/android_packages_apps_Bluetooth.git
https://github.com/idleberg/Paraiso-Rainbow.git
https://github.com/xueyousheng/docs.git
https://github.com/shenmingjun/echarts.git
https://github.com/itsikavidan/BGU_CSE_MOBILE-1.git
https://github.com/nhubktphcm/ms.git
https://github.com/ttrevorccobb/Bus.git
https://github.com/pulser/android_hardware_libhardware.git
https://github.com/clausa/carbon.git
https://github.com/mzimmerman/mythgowii.git
https://github.com/apparena/fanpage-ranking.git
https://github.com/oferb/pythongrid.git
https://github.com/sazid/.vim.git
https://github.com/seletz/substanced.git
https://github.com/mat-mcloughlin/Sandra.Snow.git
https://github.com/ashishsharma16/testfolder.git
https://github.com/czchen/cpp-coveralls.git
https://github.com/damien-m/idiomatic.js.git
https://github.com/mimartinez/objective-c-style-guide.git
https://github.com/Dangerous415/SimpleAuth.git
https://github.com/bronze1man/dbal.git
https://github.com/jabesefid/vide.git
https://github.com/jarppe/timbre.git
https://github.com/pwalsh/pystache-django-native.git
https://github.com/kalyang25/moovdemo.git
https://github.com/guolisen/openbr.git
https://github.com/nrooney/myFavBootstrap.git
https://github.com/HirotoKikuuchi/test.git
https://github.com/extras-evolution/fancybox.git
https://github.com/sandrov/hlt-confdb.git
https://github.com/DanMauger/deform_jinja2.git
https://github.com/JitendraBhumiwal/AnyPic.git
https://github.com/panallen/kanjivg.git
https://github.com/metinex/concrete.git
https://github.com/ttrevorccobb/HumphreyBus.git
https://github.com/PsychoDramatic/responsiveiframe.git
https://github.com/extras-evolution/MultiFiles.git
https://github.com/hofo/dFiddle-1.2.git
https://github.com/vimalrajpara2006/Lib-Droid-Wheel.git
https://github.com/frasertweedale/deer.git
https://github.com/canglangwenyue/SVGView.git
https://github.com/owenludong/rhino.git
https://github.com/Xerxekyran/de.hub.srcAnalysis.git
https://github.com/Lexance/socket-bundle.git
https://github.com/kunal732/vanish-mail.git
https://github.com/panallen/stroke-order.git
https://github.com/TonyXie/Dejeuner.git
https://github.com/pulser/android_hardware_broadcom_libbt.git
https://github.com/jneight/jneight.github.io.git
https://github.com/friolz/latex.git
https://github.com/djadriano/music.git
https://github.com/shaunstanislaus/openbr.git
https://github.com/RyanTech/TaxiCall.git
https://github.com/shaunstanislaus/bootstrap.git
https://github.com/bugcy013/opennms.git
https://github.com/ernie-cordell/libiconv-1.14-android.git
https://github.com/testgit12/gitTest.git
https://github.com/extras-evolution/MultiPhotos.git
https://github.com/RyanTech/XWCustom.git
https://github.com/carroux/wat-son-AWS.git
https://github.com/sweetvagabond/JS.git
https://github.com/emoismoe/WarDrum.git
https://github.com/sliveysun/jieba-analysis.git
https://github.com/wangxing1223/JavaTEST.git
https://github.com/wangxing1223/JavaTEST.git
https://github.com/talk2mayor30/Hello_World.git
https://github.com/talk2mayor30/Hello_World.git
https://github.com/ruebot/docker-islandora.git
https://github.com/ruebot/docker-islandora.git
https://github.com/virtalab/LocateMe.git
https://github.com/githubber/Cactus.git
https://github.com/githubber/Cactus.git
https://github.com/mswiderski/guvnor.git
https://github.com/mswiderski/guvnor.git
https://github.com/IncomeCountry/ouya-unity-plugin.git
https://github.com/stero11/openx.git
https://github.com/akxs14/jruby_big_decimal.git
https://github.com/akxs14/jruby_big_decimal.git
https://github.com/dtto86/TestApp.git
https://github.com/briandooley/helloworld-ci-demo.git
https://github.com/lingwen/android_packages_apps_apolloMod.git
https://github.com/Asquera/bootstrap_forms.git
https://github.com/XueDx/hiphop-php.git
https://github.com/Max-Rai/custom-UIButton.git
https://github.com/Max-Rai/custom-UIButton.git
https://github.com/Propellernet/LinkVisualisation.git
https://github.com/Propellernet/LinkVisualisation.git
https://github.com/e-leyva/studio-apps.git
https://github.com/teepluss/laravel4-harvey.git
https://github.com/wmg/engine.git
https://github.com/rweisskopf/first_app.git
https://github.com/PeteGoo/Test1.git
https://github.com/pyarun/django-ckeditor.git
https://github.com/jiuyungchaan/zguide.git
https://github.com/Erik46/Serial7SegmentDisplay.git
https://github.com/Adoni/redcarpet.git
https://github.com/Adoni/redcarpet.git
https://github.com/jpraymond/ift6266kaggle.git
https://github.com/lucifer5230/DM.git
https://github.com/lucifer5230/DM.git
https://github.com/spoonerWeb/be_secure_pw.git
https://github.com/spoonerWeb/be_secure_pw.git
https://github.com/jineshmk/jineshmk.github.io.git
https://github.com/jineshmk/jineshmk.github.io.git
https://github.com/spanner/api-pagination.git
https://github.com/nicstrong/dropbox-android-sdk-packager.git
https://github.com/whataboutbob/spray-file-upload.git
https://github.com/soumyarout/FFMpeg.git
https://github.com/Anoia/Tetris.git
https://github.com/Anoia/Tetris.git
https://github.com/Plaristote/bundler.git
https://github.com/applsdev/Nib-Decompiler.git
https://github.com/applsdev/Nib-Decompiler.git
https://github.com/loftuxab/alfresco-ubuntu-install.git
https://github.com/loftuxab/alfresco-ubuntu-install.git
https://github.com/gkopec/CodeIgniter-Ion-Auth.git
https://github.com/gkopec/CodeIgniter-Ion-Auth.git
https://github.com/krio-rogue/nodebootstrap.git
https://github.com/applsdev/cppcheck.git
https://github.com/benikov/jquery-ui-multiselect-widget.git
https://github.com/benikov/jquery-ui-multiselect-widget.git
https://github.com/piercezhangx/gitblog.git
https://github.com/jalalahmad/newrelic_pmta_agent.git
https://github.com/ADoby/cocos2d-x.git
https://github.com/ADoby/cocos2d-x.git
https://github.com/ADoby/cocos2d-x.git
https://github.com/applsdev/ContourToSurfaceRegistration.git
https://github.com/Hysler/CxxPrimerPlus.git
https://github.com/sroccaserra/bilby.js.git
https://github.com/amitkush1991/javaprogram.git
https://github.com/liyongfu/raw.git
https://github.com/jonreys/Alliance.git
https://github.com/jonreys/Alliance.git
https://github.com/iweiss/garbagecat.git
https://github.com/applsdev/HeyaldaRagDoll.git
https://github.com/applsdev/HeyaldaRagDoll.git
https://github.com/OmerElamin/MollomPHP.git
https://github.com/earwem/ListViewAnimations.git
https://github.com/earwem/ListViewAnimations.git
https://github.com/rskang/puppet-ipa.git
https://github.com/litovsdai/UISwitch.git
https://github.com/code-flow/code-flow.github.io.git
https://github.com/applsdev/NSObject-Utility-Categories.git
https://github.com/amitkush1991/investmentproperty.git
https://github.com/jtomasek/tuskar-ui.git
https://github.com/marija59/test.git
https://github.com/applsdev/osm-gps-map.git
https://github.com/datasift/os-php.git
https://github.com/tuxwerk/Survey.git
https://github.com/linqcan/Boost-for-Android.git
https://github.com/linqcan/Boost-for-Android.git
https://github.com/linqcan/Boost-for-Android.git
https://github.com/haozime/snippet.git
https://github.com/haozime/snippet.git
https://github.com/jfloodnet/ProjectionsDsl.git
https://github.com/julian7/cibib-runner.git
https://github.com/jayashreeigate/jaya1.git
https://github.com/anjackson/jAudio.git
https://github.com/notishell/libevent.git
https://github.com/applsdev/prox.git
https://github.com/ukyo/comike84-js-emscripten.git
https://github.com/ukyo/comike84-js-emscripten.git
https://github.com/footballradar/php-github-api.git
https://github.com/neerajk/bootstrap.git
https://github.com/briandooley/Basic-App.git
https://github.com/briandooley/Basic-App.git
https://github.com/applsdev/iphone-pinentry.git
https://github.com/Paras-Makhaik/bootstrap-examples.git
https://github.com/TuFangZe/LT.git
https://github.com/TuFangZe/LT.git
https://github.com/heise/WORDCLOCK.git
https://github.com/heise/WORDCLOCK.git
https://github.com/phuu/recommend.git
https://github.com/phuu/recommend.git
https://github.com/HrNanev/WebsiteProject.git
https://github.com/HrNanev/WebsiteProject.git
https://github.com/frankus0512/CVLogAnalyser.git
https://github.com/scurran/eop.git
https://github.com/gitson/jacoco.git
https://github.com/chenDoInG/KoolKartFramework.git
https://github.com/chenDoInG/KoolKartFramework.git
https://github.com/pratik91s/Respond.git
https://github.com/pratik91s/Respond.git
https://github.com/rpreto/gwt-bootstrap.git
https://github.com/dimitarkolev/docpad-documentation.git
https://github.com/ayg/web-platform-tests.git
https://github.com/e-michael/rmpweb.git
https://github.com/thorsten-k/jberry.git
https://github.com/kyberorg/Andoid-app-template.git
https://github.com/cupofjoakim/Molgan.git
https://github.com/c10b10/wp-cli.git
https://github.com/Max-Rai/MHRotaryKnob.git
https://github.com/mateusz-b/ttttq.git
https://github.com/zediah/ZedWebLedger.git
https://github.com/scott1028/CSS3_Study.git
https://github.com/wouterv/Vaadin-ConfirmDialog.git
https://github.com/earwem/my_first_repo.git
https://github.com/nicholassciama/yrs-bbc.git
https://github.com/bulwahn/vision_opencv.git
https://github.com/RyanB162/yrs2013.git
https://github.com/applsdev/Seas0nPass.git
https://github.com/Maxipepi/ProjetCareer.git
https://github.com/bakins/omnibus-collectd.git
https://github.com/Jemmy/sticky-kit.git
https://github.com/yoavmil/repsnapper.git
https://github.com/revence27/Makhaira.git
https://github.com/marc0der/heroku-buildpack-ratpack.git
https://github.com/thiagotomasi/summernote.git
https://github.com/applsdev/geokit-gem.git
https://github.com/briandooley/Decoupled-Client.git
https://github.com/artstalker/challenges.git
https://github.com/endy0611/HPEQ-Monev.git
https://github.com/Wapitidou/Lullabee.git
https://github.com/neerajk/Respond.git
https://github.com/ams2ibz/soundcloud-competition.git
https://github.com/proinfojf/PROINFO_USR.git
https://github.com/tylerzhou/Test.git
https://github.com/nehabansal24/GMGridView.git
https://github.com/theras/potato-blog.git
https://github.com/tshimazaki/Open_Test2.git
https://github.com/dstufft/pypy.git
https://github.com/merohub/currencyone.git
https://github.com/ranchodeluxemedia/Photoshop_Actions_Package_for_Designers.git
https://github.com/applsdev/Molecules.git
https://github.com/Koustav/myrepo.git
https://github.com/JanVoracek/CrimsonHttp.git
https://github.com/Ellerargen/pol_mod.git
https://github.com/MFlisar/LicensesDialog.git
https://github.com/QBui/finagle-cluster-demo.git
https://github.com/djalexd/puppet-artifactory.git
https://github.com/kholia/dedrop.git
https://github.com/makielab/django_compressor.git
https://github.com/sanbrother/KQMaster.git
https://github.com/applsdev/AMKeyboardNumberPad.git
https://github.com/hamdaouitoufik/toufik.git
https://github.com/elsoncosta/PagerSlidingTabStrip.git
https://github.com/Jemmy/casebox.git
https://github.com/Janak-Nirmal/WUTextSuggestion.git
https://github.com/WouterJ/Testing.git
https://github.com/freddiewang/freddiewang.github.com.git
https://github.com/drucko/cakephp.git
https://github.com/denaitre/dotfiles.git
https://github.com/goodsign/trinity.git
https://github.com/zerodburn/livereload-js.git
https://github.com/applsdev/libcassandra.git
https://github.com/ideal-postcodes/uk-clear-addressing.git
https://github.com/moromizu/restful-android.git
https://github.com/sai43/spree.git
https://github.com/abenius/cocoalibspotify.git
https://github.com/applsdev/dht.git
https://github.com/borgand/sspmod_MobiilID.git
https://github.com/subash321/gmails-test.git
https://github.com/kufi/LiipImagineBundle.git
https://github.com/RyanB162/yrs2013new.git
https://github.com/NileshMoradiya/jquery-validation.git
https://github.com/vdshett/JavaTestAppTDD.git
https://github.com/sergeyksv/selenium-webdriver-gh.git
https://github.com/krypt2005/tinyworld.git
https://github.com/FlamingMockingjay/yolo-octo-spice.git
https://github.com/neilus/HelloWorld.git
https://github.com/silky/emscripten.git
https://github.com/bihicheng/annotator.git
https://github.com/passy/generator-jquery-boilerplate.git
https://github.com/ExcuseMe/bombermine-shuffle.git
https://github.com/nighcrawl/custom-cms.git
https://github.com/vojtajina/karma-browserify.git
https://github.com/xingd/js-scala.git
https://github.com/hsrob/homesliced-demo.git
https://github.com/tastest/WHLooper.git
https://github.com/PNixx/Android-Libs30.git
https://github.com/Joisar/vogella.git
https://github.com/gfernandesti/ProjetosC--.git
https://github.com/chenDoInG/RobotFramework-EclipseIDE.git
https://github.com/pimduin/ormlite-core.git
https://github.com/jmurowaniecki/EaseGameJS.git
https://github.com/Baltix/gnome-shell-ext-taskbar-debian.git
https://github.com/deltahex/manage.qi-interactive.com.git
https://github.com/malmostad/touch-poi-admin.git
https://github.com/jetjet010/Banana.git
https://github.com/agno01/httptop.git
https://github.com/amukiza/Python_FizzBuzz.git
https://github.com/jerackista/jQuery.PrettyTextDiff.git
https://github.com/jswiss/Chart.js.git
https://github.com/r15ch13/Geolib.git
https://github.com/kingconan/emoji-extractor.git
https://github.com/jswiss/Table2Chart.git
https://github.com/nacho87/spanish_ci.git
https://github.com/idleberg/Kimbie-Rainbow.git
https://github.com/neerajk/bootstrap-glyphicons.git
https://github.com/mike-aksarin/Aloha-Editor.git
https://github.com/robertqin/ios-3.5-howtos.git
https://github.com/DiegoMamut/RadioPlayer.git
https://github.com/sgrebnov/PointerEvents.git
https://github.com/AntoineTurmel/l10n-test.git
https://github.com/kraut-dps/redmine_kanbanery.git
https://github.com/myska/WhatsAPI-0c1a9d6e3295623f330dfe1cc30413c403daa0fc.git
https://github.com/BenyGrooves/jslint.vim.git
https://github.com/huonw/rustdoc_ng.git
https://github.com/isolino-ferreira/calculadora-polonesa.git
https://github.com/berkerpeksag/django-simplewiki.git
https://github.com/NamelessFortress/hw3_rottenpotatoes.git
https://github.com/Maj0rrush/ExamplesByMesh.git
https://github.com/RVDHOFADP/TestRepo.git
https://github.com/138044/DRM.git
https://github.com/osbornebrook/annotate_models.git
https://github.com/etrling/cvxopt.git
https://github.com/blackboard/jenkins.git
https://github.com/linfiesto/mmotm.git
https://github.com/Brunoalcau/grunt-jenkins.git
https://github.com/TuFangZe/ltcode.git
https://github.com/techtim/roxlu_libs.git
https://github.com/anishantony123/gatein_36.git
https://github.com/seahawk1986/arch-acpiwakeup-ng.git
https://github.com/MrFrankel/blockui.git
https://github.com/0x3024/Rainbow.git
https://github.com/iposov/server-scripts.git
https://github.com/SamanSystems/WebGate-TomatoCart.git
https://github.com/djbone/ByteartRetail.git
https://github.com/chenjie-cnooc/grunt-froeend-task.git
https://github.com/Alienfeel/cvxopt.git
https://github.com/backeran/rtranslate.git
https://github.com/t5kojo01/bootstrap-datepicker.git
https://github.com/ibrahimcesar/RubyVerbalExpressions.git
https://github.com/Gantulga15/asgard.git
https://github.com/githcx/asio_echo_server.git
https://github.com/zenithght/heroku-buildpack-zotonic.git
https://github.com/deonheunis/merit.git
https://github.com/nanis/nmg3n.git
https://github.com/abhishekp906/smartlist.git
https://github.com/sanchitsamuel/theLINUXKernel.git
https://github.com/jhondge/ELCImagePickerController.git
https://github.com/elimence/android.git
https://github.com/maickelc/Lua.git
https://github.com/Laica-Lunasys/MusicBox.git
https://github.com/vechmaster/YRSo2.git
https://github.com/kritwn/forlink.git
https://github.com/elielcruz/insulario.git
https://github.com/coolcsn/CsnBase.git
https://github.com/monishagarwal215/NDK-Samples.git
https://github.com/evolchek/FOSUserBundle.git
https://github.com/codefordc/codefordc.github.com.git
https://github.com/seehou/phonegap.git
https://github.com/zuiwanting/Topshelf.git
https://github.com/paulalexpax/emacs.d.git
https://github.com/kostya4001/buildroot-mx.git
https://github.com/OwenRackham/idid_ascience.git
https://github.com/neerajdas/Plasmatic-Isosurface.git
https://github.com/sathishmarappan/test.git
https://github.com/DiegoMamut/AFPlayer.git
https://github.com/topstechnologies/IPP_Sample_Code.git
https://github.com/JevanWu/pinpin.git
https://github.com/donjordano/objective-c-style-guide.git
https://github.com/sethiele/poet.git
https://github.com/oldslowfatstu/Nicola.git
https://github.com/koushikr/julia.git
https://github.com/andrepires/TechdaysBeDemo.git
https://github.com/the-kit-team/certificates_store.git
https://github.com/srna/redmine_thumbnails.git
https://github.com/olddigger/digger-cli.git
https://github.com/defeo/scalpo.git
https://github.com/ahcamora/nfephp.git
https://github.com/pjvds/box-java.git
https://github.com/Jessixia/Nimb.git
https://github.com/magnlon/gittest.git
https://github.com/jeffwallman/Rime-Center-OCR.git
https://github.com/ziruer/databse.git
https://github.com/marlenegrimm/MobileApp.git
https://github.com/pyconca/2013-eventmobi-import.git
https://github.com/mateusz-b/tttt.git
https://github.com/garethavid/avid-test.git
https://github.com/LeonXJ/leonleetcode.git
https://github.com/chaohui0/example.git
https://github.com/ronaldo971/guice-tutorials.git
https://github.com/viq/cm-lab.git
https://github.com/XMUCobra/TraVo.git
https://github.com/Eliaspirante/grapefruit.git
https://github.com/amitkrsingh/socket.io.git
https://github.com/arnau/simple8601.git
https://github.com/dalen/puppetlabs_spec_helper.git
https://github.com/ShcherbakYurii/mvideos.git
https://github.com/tiensuu1/sprInvoice.git
https://github.com/lciel/lciel.github.com.git
https://github.com/lastforeverzl/picweb.git
https://github.com/esolorzano/eCode.git
https://github.com/undf/LexikMailerBundle.git
https://github.com/pycerl/duv.git
https://github.com/wchaowu/node-d2server.git
https://github.com/muchbt/macvim.git
https://github.com/nichtemna/SwipeToDismissUndoList.git
https://github.com/wphungsuk/dsploit.git
https://github.com/Julianzz/fly.git
https://github.com/matcx/TestRepo.git
https://github.com/comensee/php-google-translate.git
https://github.com/coolcsn/CsnNavigation.git
https://github.com/yrs10/YRSo2.git
https://github.com/jeppebundsgaard/atk4-web.git
https://github.com/velosa/android_device_lge_e610.git
https://github.com/xeon2007/devsamples.git
https://github.com/lexk/US-Backend-Candidate-Lab.git
https://github.com/applsdev/AROverlayExample.git
https://github.com/kewlcherry/js-sequence-diagrams.git
https://github.com/liangyaobin/ezMark.git
https://github.com/addctdto/liferay-portal.git
https://github.com/applsdev/Open-Torch.git
https://github.com/ReseaSoft/Internet-Store.git
https://github.com/nobnak/Paper.git
https://github.com/applsdev/ObjQREncoder.git
https://github.com/Izek/think_in_java_4.git
https://github.com/coolcsn/CsnAuthorization.git
https://github.com/bwdev/phoneguys.git
https://github.com/supercrawler/PagerSlidingTabStrip.git
https://github.com/mkcomco/mk-site.git
https://github.com/mrigank-kishore/M_Git.git
https://github.com/applsdev/node-mtgox-websocket-client.git
https://github.com/wnyc/breach_buster.git
https://github.com/athzuma/Espantalho.git
https://github.com/tejpratap0/arduino-libs-manchester.git
https://github.com/jacoblane/prose.git
https://github.com/thomax/PathfinderOpenReference.git
https://github.com/applsdev/vfbitcoin.git
https://github.com/sndelhi3188/docrails.git
https://github.com/clojens/inflections-clj.git
https://github.com/sklueh/PHPZipHelper.git
https://github.com/githcx/asio_http_echo_server.git
https://github.com/applsdev/SNRiTunesParser.git
https://github.com/dsteinbrunner/Devel-StackTrace-WithLexicals.git
https://github.com/apo-j/cjs.git
https://github.com/vijaykumar183/Pandora_kernel.git
https://github.com/coolcsn/CsnCms.git
https://github.com/seboettg/poodle.git
https://github.com/doctorwho83/android_kernel_sony_apq8064.git
https://github.com/royb3/CameraBrowser.git
https://github.com/vimalrajpara2006/Lib-Droid-CalDroid.git
https://github.com/igorbronowicki/e-shop.git
https://github.com/applsdev/SpyPhone.git
https://github.com/jejatu/SudokuSolver.git
https://github.com/proudlucifer/puredns.git
https://github.com/thomax/PSRD-Parser.git
https://github.com/Arlert/ServiceStack.UseCases.git
https://github.com/krunalrasik/changer.github.com.git
https://github.com/surajpratap/ModalView.git
https://github.com/attila/LiveReload-sublimetext2.git
https://github.com/seyton/VVDocumenter-Xcode.git
https://github.com/djnoxd-p990/proprietary_vendor_lge.git
https://github.com/applsdev/StudyiOS.git
https://github.com/sennamohan/WebGLBook.git
https://github.com/detook/yii-emailer.git
https://github.com/karta2190965/CodeChickenLib.git
https://github.com/applsdev/Google-Street-View-API-Wrapper.git
https://github.com/fbianco/gwyexport.git
https://github.com/zoozoo/AccelerometerReader.git
https://github.com/psporysz/when-changed.git
https://github.com/lulinqing/nodechecker-engine.git
https://github.com/ehtb/rails.git
https://github.com/weisental/restler.git
https://github.com/hoppinger/spree_ideal_handler.git
https://github.com/applsdev/MAConfirmButton.git
https://github.com/squoraishee/UnityTest.git
https://github.com/xingd/coffee-script-jsr-223.git
https://github.com/lulinqing/nodechecker.com.git
https://github.com/lulinqing/nodechecker-tester.git
https://github.com/steipete/appledoc.git
https://github.com/muchbt/linux.git
https://github.com/applsdev/BSSCISample.git
https://github.com/jasongrout/sage.git
https://github.com/nam1cob/ECSlidingViewController.git
https://github.com/Sriram5/quickblox-ios-sdk.git
https://github.com/razakhan12/Hosts-Alive.git
https://github.com/RUnigma-NEW/3rd-skins.git
https://github.com/domoritz/ckanext-datatable.git
https://github.com/bitdeli-chef/jquery.kern.git
https://github.com/lingen/WSSecurity.git
https://github.com/lcarver73/appitito.git
https://github.com/sanpii/blog.git
https://github.com/mahdianpeyman/RBPT.git
https://github.com/cmichon/moneta.git
https://github.com/avplayer/avhttpd.git
https://github.com/Lanover/PHP-Find-Country-via-IP.git
https://github.com/jcentino/NodeSocketIO.git
https://github.com/debruyne51/mendelparts.git
https://github.com/xeon2007/TSignalr.git
https://github.com/Korvuss/pygame_project.git
https://github.com/mlreed328/vagrant-rails.git
https://github.com/Shopify/omnibus_updater.git
https://github.com/aganim/canvas-igp.git
https://github.com/WhiteDrake/Top.git
https://github.com/Illium/OnionCloud.git
https://github.com/hitwork/gallery3-contrib.git
https://github.com/dinhtana4/lab3d.git
https://github.com/saladinreborn/dompdf.git
https://github.com/gr2m/hoodie-plugin-tutorial.git
https://github.com/ekepes/Orinoco.git
https://github.com/RyanJulyan/google-API-test.git
https://github.com/ziruer/slang.git
https://github.com/giuliano108/nsconfig.git
https://github.com/kartverket/TileShaver.git
https://github.com/shashib/omrails.git
https://github.com/aromal-sasidharan/IntegratingFacebookTutorial.git
https://github.com/bluebary/CollectAgent.git
https://github.com/genba/python-guide.git
https://github.com/PuzzleFlow/Parsley.js.git
https://github.com/ragnard/ragtime.git
https://github.com/bitstreamout/data-diver.git
https://github.com/chrisjoyce911/GPSLogger.git
https://github.com/linzw07/AmbitiousWeb.git
https://github.com/kamerblauwlicht/linkedin.git
https://github.com/chrib/converter.git
https://github.com/rsvoboda/tattletale.git
https://github.com/philippeowagner/django-fsm.git
https://github.com/juristpedia/modules.git
https://github.com/byonabz/ActionsContentView.git
https://github.com/applsdev/HTML5-Face-Detection.git
https://github.com/global01/yadcf.git
https://github.com/brandizzi/examples-plugins-sdk.git
https://github.com/edubkendo/base16-builder.git
https://github.com/luislobo/mintsources.git
https://github.com/vijaykramesh/sample-flow-app.git
https://github.com/JEdson/VetorDeLetras.git
https://github.com/siemiatj/MeetJS-Pong.git
https://github.com/trsqxyz/doodle.git
https://github.com/ExistentialEnso/Hue-PHP-Toolkit.git
https://github.com/Ankit107mishra/Surviving-with-android.git
https://github.com/gavinvonk/thunderville.git
https://github.com/prodigi23/elektronika.git
https://github.com/prasantakumarswain/birthday_portal.git
https://github.com/AidenStrydom/Android-Button-Tab.git
https://github.com/sheerluck/andrew.git
https://github.com/applsdev/BCCollectionView.git
https://github.com/Muscul/page.git
https://github.com/rramsden/chef-npm.git
https://github.com/applsdev/wod.git
https://github.com/Drucode/parrot.git
https://github.com/emenwin/GC3DFlipTransitionStyleSegue.git
https://github.com/i5ting/tube.git
https://github.com/janschulte/enviroCar-app.git
https://github.com/Drucode/vagrant-development-vm.git
https://github.com/plasticmat/musotika.git
https://github.com/CharmsStyler/cubictest.git
https://github.com/haozi89/ActionBar-PullToRefresh.git
https://github.com/yzou/qTip2.git
https://github.com/Drucode/chef-drush.git
https://github.com/moacirlmjr/facesurveyavaty.git
https://github.com/chenjie-cnooc/grunt-test-upload.git
https://github.com/wojewsky/Geocoder.git
https://github.com/m0xds/jqSocialSharer.git
https://github.com/sthommes/serendipomatic.git
https://github.com/nardin/iws-snippets.git
https://github.com/maxusis/---------.git
https://github.com/karunakarhv/Data-Structure.git
https://github.com/ReioR/calc.git
https://github.com/davidoster/Bonfire.git
https://github.com/Buddhima/Weave-D.git
https://github.com/yzou/Autogrow-Textarea.git
https://github.com/E01T/phpjs.git
https://github.com/ermin-sakic/wireless-sensor-networks.git
https://github.com/shoestringpsycholing/rrr_tools.git
https://github.com/mattrobinsoncv/underpantsGnomes.git
https://github.com/rasik20051/pics-uploader.git
https://github.com/pabloescribano/dribbble-dotnet.git
https://github.com/nathankleyn/pikaday.git
https://github.com/mirhec/miij.git
https://github.com/rybakit/snappy.git
https://github.com/keithamoss/sudoku-solver.git
https://github.com/gswica/jQuery-Autocomplete.git
https://github.com/mar77i/octa.git
https://github.com/Abdal2102/feeds.git
https://github.com/pcarranzav/linux-for-lobster.git
https://github.com/ResourceManagement/ResourceManagement_Selenium2_Tests.git
https://github.com/gitxw/Katie-s-Rougish-PyGame.git
https://github.com/girikudlur/blueprint-css.git
https://github.com/oGGy990/nodesnd.git
https://github.com/ugers/utouch_device_907.git
https://github.com/fcosnier/android-database-sqlcipher.git
[...]
https://github.com/spuzzelsnest/WW2WEB.git
https://github.com/PHPDOTSQL/Basic-Android-Apps.git
https://github.com/andrewkononuchenko/bootstrap-tour.git
https://github.com/sylafrs/zTarot.git
https://github.com/tonyzonghui/AFKissXMLRequestOperation.git
https://github.com/shrayanth/bootplate.git
https://github.com/wuyong2k/notepad2-mod.git
https://github.com/DelmerGA/impress.js.git
https://github.com/riddhi89/reddwarf_lite-integration.git
https://github.com/MailOnline/grunt-ftpscript.git
https://github.com/zihu/udp_to_tcp_anal.git
https://github.com/rbart/Tac2013EntityLinking.git
https://github.com/athaeryn/lilscripts.git
https://github.com/ajwang/simplelinux.git
https://github.com/samuelngahane/socket.io.git
https://github.com/johandroid/Arduino-Communicator.git
https://github.com/garysweaver/composite_primary_keys.git
https://github.com/josemp32/scrollerView.git
https://github.com/redoc123/twitter-bootstrap-sample-page-layouts.git
https://github.com/dodozhang21/contacts.git
https://github.com/maxenglander/sailblog.git
https://github.com/heme/compdir-api.git
https://github.com/cuntmaster/tetrix.git
https://github.com/ThaWeatherman/AES-file-encryption.git
https://github.com/nyl-auster/okc-framework.git
https://github.com/divingmule/plugin.audio.iheart.git
https://github.com/Macroon70/onLive_PoC.git
https://github.com/wukka/Http.git
https://github.com/MichalKrasowski/CppAmp.git
https://github.com/bihicheng/tweepy.git
https://github.com/nav786te/jtable.git
https://github.com/jardweski/monodroid-samples.git
https://github.com/mtnguru/yogi1.git
https://github.com/amapig/XMPPFramework.git
https://github.com/ronanhardiman/drag-sort-listview.git
https://github.com/boynton/marked.git
https://github.com/pturunen/TKantaharj.git
https://github.com/tarun14691/phonegap-android-actionbarsherlock-tabbar-plugin.git
https://github.com/davestum/Kiva.git
https://github.com/eriktaubeneck/hadoop_playground.git
https://github.com/Life-the-game/Portal.git
https://github.com/nhocyeuhoc/debug_kit.git
https://github.com/ZetalabsCL/labterra.git
https://github.com/carlosveucv/jquery-box-slider.git
https://github.com/ggamir/soylent.git
https://github.com/ronabinho/android.git
https://github.com/arturocardoni/InsideJob.git
https://github.com/rushimusmaximus/exiftool.git
https://github.com/jerhinesmith/flightconf.git
https://github.com/Sage-Bionetworks/crcsc.git
https://github.com/joyvuu-dave/blanket.git
https://github.com/apuchowdhury80/idev-recipes.git
https://github.com/clekstro/api_auth.git
https://github.com/g-balas/TestUrSelf_Server.git
https://github.com/PascualArroyo/heimcontrol.js.git
https://github.com/ayoformayo/ayoformayo.github.io.git
https://github.com/hpcarlos/turboforms.git
https://github.com/todofixthis/git-archive-all.sh.git
https://github.com/laantorchaweb/preloader.git
https://github.com/Lianping/rabbitmq.git
https://github.com/manu7691/Canvas-Module-Prestashop-15.git
https://github.com/chugas/GoogleBundle.git
https://github.com/mikeberlin/di-Arrests-Plotter.git
https://github.com/iceblu3710/Repetier-Server.git
https://github.com/shakelabstudio/MarqueeLabel.git
https://github.com/aroberts1/onemonthrails-.git
https://github.com/ronanhardiman/android_packages_apps_apolloMod.git
https://github.com/alifar76/PHoP.git
https://github.com/floatl/demo_app.git
https://github.com/yabroker/ice.git
https://github.com/bilenskaya/angular.js.git
https://github.com/chugas/FacebookBundle.git
https://github.com/Labaile/myrepo.git
https://github.com/estebanafonso/python-algorithms.git
https://github.com/control-center/serviced.git
https://github.com/shinypb/blink.js.git
https://github.com/chugas/TwitterBundle.git
https://github.com/DodekaHydra/webaudio.js.git
https://github.com/gicolek/cycle.git
https://github.com/kailong180/sample_app.git
https://github.com/tst-hirizarry/java-cas-client.git
https://github.com/jatinpandey/PythonVerbalExpressions.git
https://github.com/unscef/testplugin.git
https://github.com/schobiwan/browser-diet.git
https://github.com/caiolima/jabref-2.9.2.git
https://github.com/jzienkiewicz/Kangaroo.git
https://github.com/leandrorchaves/PiCAST.git
https://github.com/craigburke/dropwizard-foaas.git
https://github.com/agonopol/goenv.git
https://github.com/juniorth6/backbone-cellar.git
https://github.com/stol/poligame.git
https://github.com/KiiPlatform/discourse.git
https://github.com/BrendanPluralsight/bugfree-octo-dubstep.git
https://github.com/youare/bar.git
https://github.com/michalvalasek/vagrant-php-development-box.git
https://github.com/philippetavernier/Android-Cookbook-Examples.git
https://github.com/luffywu/libmicrohttpd.git
https://github.com/cfclavijo/cocos2d-x.git
https://github.com/danopia/spinode-old.git
https://github.com/ftong/temoa.git
https://github.com/heath140/EquusAccounting.git
https://github.com/maxpeterson/djcroco.git
https://github.com/nmoya/dotfiles.git
https://github.com/RjKosya/vk-album.git
https://github.com/Wicked7000/PickNsticks.git
https://github.com/kevinknelson/requirejs.git
https://github.com/biggani/Jsbin_custom_2.9.x.git
https://github.com/GuillaumeDIDIER/homebrew-dupes.git
https://github.com/khageshpatel/firewall-auth.git
https://github.com/leonardovms/jabref-2.9.2.git
https://github.com/aesptux/Projects.git
https://github.com/tpruvot/yii.git
https://github.com/dirkhainc3/jasmine.git
https://github.com/mbautin/berkshelf.git
https://github.com/KetSan/PMDE_Plugin.git
https://github.com/gamestu/atc.git
https://github.com/chugas/SocialUserBundle.git
https://github.com/chirich/hw3_rottenpotatoes.git
https://github.com/reborg/homebrew.git
https://github.com/kokarat/react.git
https://github.com/tmbeatty/sqliteTutorial.git
https://github.com/carloscalla/Puls3-America.git
https://github.com/madodela/MetodosNumericos.git
https://github.com/kabitakis/SonataUserBundle.git
https://github.com/psudmant/heap.git
https://github.com/Aaronlong31/k-vim.git
https://github.com/Pretz/SVWebViewController.git
https://github.com/mikekab/Congruence_Class_Registry_Demo.git
https://github.com/cadavre/APIcon-android.git
https://github.com/just-a-boy/CFJS.git
https://github.com/usgs/azimuth.git
https://github.com/hennesb/emeraldbrookgolf.git
https://github.com/wuyou8933/twitter-API-example.git
https://github.com/markoheijnen/woocommerce.git
https://github.com/projecthydra-labs/hybag.git
https://github.com/grn94/git.git
https://github.com/adammenges/mojo.git
https://github.com/Artii15/blog.git
https://github.com/smiron/nupic.git
https://github.com/dtdesign/tesseract.git
https://github.com/igozali/octopress.git
https://github.com/zawszaws/map-esri-js-my-government-services.git
https://github.com/FreekPaans/PagePerformanceInsights.git
https://github.com/reactivepixel/fireChat.git
https://github.com/jjw123/OpenBlocks.git
https://github.com/pazguille/ask.git
https://github.com/mixedmedia/api_toddlr.git
https://github.com/bbuchanan/Test.git
https://github.com/Daogilles/backbone.git
https://github.com/magicaltrevor/lpthw-study-projects.git
https://github.com/datacompboy/savon-multipart.git
https://github.com/mariogrieco/MejorandoCurso.git
https://github.com/HyperPixel/DO-NOT-USE__gl.lunar2.decisivebattle.git
https://github.com/gimbel0893/text.git
https://github.com/pagoda-cookbooks/graphite.git
https://github.com/mllanes/select2.git
https://github.com/oshbocker/hw3_rottenpotatoes.git
https://github.com/HansDev/Durandal_Serverside_Authentication.git
https://github.com/cavictor/RN.git
https://github.com/fonnesbeck/fonnesbeck_nb_bug.git
https://github.com/Foutchy/CodeIgniter-sFTP-Library.git
https://github.com/ChristopherFranko/Franko-Paper-Wallets.git
https://github.com/tyrannosaurus-becks/python-library.git
https://github.com/lukashalim/processing_class.git
https://github.com/matsuhiro/TraceTest.git
https://github.com/cavictor/RP.git
https://github.com/asok/jasmine-jquery.git
https://github.com/usbcrodriguez/repositorio1.git
https://github.com/betini/repositorio1.git
https://github.com/mariofer82/repositorio1.git
https://github.com/flaudisio/scripts.git
https://github.com/sfranco/repositorio1.git
https://github.com/francobp/repositorio1.git
https://github.com/juan92/repositorio-1.git
https://github.com/micheldorian/repositorio1.git
https://github.com/21msweeney/ms-Dropdown.git
https://github.com/yellowiscool/gwaaaaaaah-visualizer.git
https://github.com/sukumarvaddi/hw2_rottenpotatoes.git
https://github.com/mjhea0/searchkick.git
https://github.com/DmitryAleynikov/Excercise.git
https://github.com/substance/screwdriver.git
https://github.com/neerajgupta2407/phonegap-plugins.git
https://github.com/Cube-Nation/RecipeManager2.git
https://github.com/pekosoG/PruebaJava.git
https://github.com/Cauldrath/cheerio.git
https://github.com/mss/duraconf.git
https://github.com/anbenqishi/groupcache.git
https://github.com/zipfian/chrome-statistics-data.git
https://github.com/arjunc77/htmlstreamparser.git
https://github.com/mingomax/twitter_bootstrap_admin.git
https://github.com/zipfian/oakland-law-network-data.git
https://github.com/jmav/nodejs-cookbook.git
https://github.com/Mack36/Patch3.3.5a.git
https://github.com/xielong/spring-amqp-samples.git
https://github.com/Canub/hw3_rottenpotatoes.git
https://github.com/booboo-at-gluga-de/GlugaST.git
https://github.com/ComunidadeExpresso/expressomobile-prototipo.git
https://github.com/birkanicacan/klisebot.git
https://github.com/wbd6572789/MCsoft.git
https://github.com/tstivers/icfp2008.git
https://github.com/jiecaoc/mathematica.git
https://github.com/hpark88/tryagain.git
https://github.com/melissa/puppet-git.git
https://github.com/dfriedm/rails_interview_questions.git
https://github.com/Dimonte/VerbalExpressions.AS3.git
https://github.com/adafruit/Adafruit-USB-DC-LiPoly-Charger.git
https://github.com/wukka/Nonce.git
https://github.com/7h3rAm/stuffz.git
https://github.com/boomsb/emu.git
https://github.com/TrueAbility/authlogic.git
https://github.com/CannonRays/demo_app.git
https://github.com/murphy99/rails-bootstrap.git
https://github.com/rla/prolog-markdown.git
https://github.com/dotnacker/scratchpad.git
https://github.com/derekqian/evantube.git
https://github.com/dokky/jquery.git
https://github.com/jherimum/faker.git
https://github.com/dave7802/BB3-Forum-Code.git
https://github.com/carloscalla/pag-construccion.git
https://github.com/Wilkuf/MechJeb2.git
https://github.com/michaelnflx/geventdaemon.git
https://github.com/heroims/UISelectBars.git
https://github.com/balibengali/dotfiles.git
https://github.com/ashu879/Hello-World.git
https://github.com/bjscollura/sample_app.git
https://github.com/mitchdes/Github.git
https://github.com/tstivers/icfp2009.git
https://github.com/ichinaski/vim-cheat-sheet.git
https://github.com/correaecastro/gantti.git
https://github.com/carloscalla/PCYIP.git
https://github.com/gitAcharya/ios-temp-conv.git
https://github.com/vukcevich/ThreeDecimalLimit.git
https://github.com/zhoujd/zzmultiviewer.git
https://github.com/mikehagerty/azimuth.git
https://github.com/JoshArayaPlumChoice/Toolkit.git
https://github.com/breathingrock/zf2.git
https://github.com/fdgonthier/TbxLib.git
https://github.com/goke-epapa/testrepos.git
https://github.com/squoraishee/SmallUnity.git
https://github.com/soberzhou/ios7-wireframe-kit.git
https://github.com/nickbender/fuzzily.git
https://github.com/kalectro/faulhaber_driver.git
https://github.com/qubole/demotrends.git
https://github.com/roger-roger/time-train.git
https://github.com/ryedin/cradle.git
https://github.com/soijakapteeni/glowing-octo-wookie.git
https://github.com/nbohra/GKImagePicker.git
https://github.com/joeshaw/swift.git
https://github.com/pprkut/facebook-php-sdk.git
https://github.com/craffel/mir_eval.git
https://github.com/vipres/Puls3-America.git
https://github.com/biggani/jsbin.git
https://github.com/NCIBI/MetDiseaseCytoscapePlugin.git
https://github.com/chegurdek/bootstrap.git
https://github.com/koebner/Clase4.git
https://github.com/jhatial/free.git
https://github.com/robertdean/angular-dragon-drop.git
https://github.com/nanliu/puppetlabs_spec_helper.git
https://github.com/ellipsoid/guestbook.git
https://github.com/jlurgo/RouterVortexNode.git
https://github.com/riuson/mapinfo.git
https://github.com/bbrickley/Fitbit.NET.git
https://github.com/tstivers/icfp2010.git
https://github.com/lanestp/AWTextureFilter.git
https://github.com/halfmolar/otp.git
https://github.com/mikeberlin/di-Chuck-Norris-Wrote-This.git
https://github.com/slicejs/CanvasQuery.git
https://github.com/tstivers/icfp2011.git
https://github.com/anarpafran/coffee-experience.git
https://github.com/rhyss/reboot.git
https://github.com/britinva/paypal-digital-goods-php-examples.git
https://github.com/ron666/mediaelement.git
https://github.com/melissa/osxbuilder.git
https://github.com/nanaewusi/blog.git
https://github.com/namapane/cmssw.git
https://github.com/j23414/gephi.git
https://github.com/rubalc/IntranetFarmacia.git
https://github.com/Sena/WP_greatSearch.git
https://github.com/krishnaarava/dropwizard-spring-di-security-onejar-example.git
https://github.com/ajumell/express-django.git
https://github.com/syrahmaearguilles/final.git
https://github.com/kennethacohen/blog.git
https://github.com/jeffreybaird/sinatra-cl.git
https://github.com/sgomes/google-api-ruby-client.git
https://github.com/ashu879/Spoon-Knife.git
https://github.com/interconnectit/woocommerce.git
https://github.com/Quethzel/Rock-Paper-Scissors.git
https://github.com/bgribbin/poll.git
https://github.com/dodozhang21/hello.git
https://github.com/yutin1987/qoo.git
https://github.com/nastysloper/no_dollar.git
https://github.com/pmhood/objc-coding_guideline.git
https://github.com/jburkpointmarc/MSDN-Netreflector.git
https://github.com/cpopov/places.git
https://github.com/tstivers/icfp2012.git
https://github.com/andyperlitch/data_viz_demos.git
https://github.com/lea89/first_app.git
https://github.com/listentorick/CowAndPig2.git
https://github.com/marcusway/frequency_analysis.git
https://github.com/KennyLisc/Laravel-4-Bootstrap-Starter-Site.git
https://github.com/vbuzzano/ember-web-app.git
https://github.com/Xelvair/Connect4-Engine.git
https://github.com/Daniel506/AcousticModelAdaptation.git
https://github.com/sinal8a/72.183.232.143.git
https://github.com/josephfinlayson/dnipsum.git
https://github.com/gmoothart/charade.git
https://github.com/kmcallister/rust-azure.git
https://github.com/A9-0Z/Plugins.git
https://github.com/biocoder/mtrna-seq.git
https://github.com/kmcallister/rust-hubbub.git
https://github.com/pdubslax/cisco-intern-application.git
https://github.com/cesaraugusto29/MassTransit.git
https://github.com/misterniark/flatstrap.git
https://github.com/mjaceSolutions/objective-c-style-guide.git
https://github.com/kmcallister/rust-layers.git
https://github.com/johnnyclem/rampup-server.git
https://github.com/kmcallister/rust-opengles.git
https://github.com/cgfmedia/chrisfox_BonsaiApp_130.git
https://github.com/kmcallister/sharegl.git
https://github.com/kmcallister/rust-wapcaplet.git
https://github.com/chrisabrams/Node.js-and-Backbone-Model-Validation-Starter.git
https://github.com/cesarinmp/lazy-line-painter.git
https://github.com/ragunath74/thymeleafexamples-petclinic.git
https://github.com/andriusa2/check-status.git
https://github.com/biggani/tinkerbin.git
https://github.com/TakumiBaba/inagawa.git
https://github.com/bradleyjs/hadoop-book.git
https://github.com/kuyan/vim-cheat-sheet.git
https://github.com/daveloyall/examples.git
https://github.com/8manos/kc-essentials.git
https://github.com/bradgreens/css-modal.git
https://github.com/cesarinmp/JZoopraxiscope.git
https://github.com/heroims/controlEffect.git
https://github.com/diasdavid/mailgun-validate-email.git
https://github.com/nzajt/jquery-datatables-rails.git
https://github.com/Basimanele26/45012741_assignment01.git
https://github.com/mikeberlin/di-Star-Wars-Scroll-Custom-Fonts-PoC.git
https://github.com/clojens/at-at.git
https://github.com/Delejnr/DashDoc.git
https://github.com/easybiblabs/dflydev-doctrine-orm-service-provider.git
https://github.com/bananu7/bananu7.github.com.git
https://github.com/exitio/Watch.JS.git
https://github.com/puffy/selectize.js.git
https://github.com/jinhuaxiao/reveal.js.git
https://github.com/microweber/screen.git
https://github.com/Neson/Flycut.git
https://github.com/MdaK/sample_app.git
https://github.com/jm4l1/.emacs.git
https://github.com/ajaincc/myrepo.git
https://github.com/steko/draft-geojson.git
https://github.com/biggani/codemagic.git
https://github.com/mkersbergen/Sick-Beard-Dutch.git
https://github.com/EnriqueVidal/bcms_news.git
https://github.com/alexgrauroca/mejorando.la.git
https://github.com/JoshArayaPlumChoice/Test.git
https://github.com/biggani/html5playground.git
https://github.com/NeoOrion/mejorando.la.git
https://github.com/adaogavina/callmeter.git
https://github.com/Joe11000/TabInterface.git
https://github.com/onewhotyles/umbraco.git
https://github.com/jeduan/corona-bower-template.git
https://github.com/optiflows-cookbooks/prosody-legacy.git
https://github.com/fdgonthier/TbxUtils.git
https://github.com/SteveLops/first_app.git
https://github.com/yilab/json.git
https://github.com/nabeezy/trackr.git
https://github.com/timothyjlaurent/GutMetagenomics.git
https://github.com/luizpaulo2m/File-Input-Image-Preview.git
https://github.com/robwalton/diffcalc.git
https://github.com/justmyunluck/my_app.git
https://github.com/asbowcock/HelloWorld.git
https://github.com/tunacasserole/rms.git
https://github.com/alexanderkustov/apresse-skew-slider.git
https://github.com/rickardlindberg/haskell-vnc.git
https://github.com/GangplankRVA/basic_web_template.git
https://github.com/PaulAdamDavis/JSON-Beautifier.git
https://github.com/devopsbrett/OTech-Wordpress.git
https://github.com/mikeberlin/di-DeeJay.git
https://github.com/Eastmango/Puls3-America.git
https://github.com/hoyang/MiniCMS.git
https://github.com/segsalerty2013/mustafa.git
https://github.com/achalddave/vim-pandoc-syntax.git
https://github.com/medikoo/xlint-jslint.git
https://github.com/anthonycreates/spree_editor.git
https://github.com/pallika/anafora.git
https://github.com/GabiH/site-crawler.git
https://github.com/crystal520/fb.git
https://github.com/canvace/EventEmitter.git
https://github.com/idleberg/Kimbie-Chrome-Developer-Tools.git
https://github.com/ryankirkman/social-buttons-server.git
https://github.com/akfreas/legacy-iphone.git
https://github.com/eknuth/tools.git
https://github.com/visay/fluidcontent_bootstrap.git
https://github.com/flyaruu/oo-install-scripts.git
https://github.com/vladislavVI/Telerik-Academy-Homeworks.git
https://github.com/paritosh90/facebook_auth.git
https://github.com/jonbri/MasterOfSubmodules.git
https://github.com/apsk/angular.js.git
https://github.com/evilstreak/pipe-dream-prototype.git
https://github.com/TestingApp/TestingApp.git
https://github.com/oliver32767/FizzBuzzEnterpriseEdition.git
https://github.com/epetrie/envelop.git
https://github.com/jjvelez03/mejorando.la.git
https://github.com/estairplusplus/changesaw.git
https://github.com/KennyLisc/nettuts-laravel4-and-backbone.git
https://github.com/EduardoSotelo/rails_panel.git
https://github.com/the-swerve/reactive.git
https://github.com/monocromatico/not227.git
https://github.com/OhadRon/Almuerzo.git
https://github.com/goelpulkit/apps.git
https://github.com/HashanP/math.js.git
https://github.com/rvergis/codegen.git
https://github.com/haitranduc/epublib.git
https://github.com/biggani/fiddlesalad.git
https://github.com/bchhun/pelican-svbtle.git
https://github.com/venkatakarunakar/Elasticsearch-HBase-River.git
https://github.com/KanaEiref/bpl.git
https://github.com/venkatakarunakar/hbase-indexer.git
https://github.com/jsouthern/candy.git
https://github.com/mufumbo/FFCircularProgressView.git
https://github.com/gerzhan/require-css.git
https://github.com/youtubeoreo/jokes.git
https://github.com/horirevens/jQuery-Validation-Engine.git
https://github.com/orieken/derp_bear_multi_examples.git
https://github.com/hollerbackco/bmo.git
https://github.com/zeeklaar/CORALBrowser.git
https://github.com/brudgers/VectorScriptTools.git
https://github.com/sridher/reSTPlugin.git
